(PID.TID 0000.0001) 
(PID.TID 0000.0001) // ======================================================
(PID.TID 0000.0001) //                      MITgcm UV
(PID.TID 0000.0001) //                      =========
(PID.TID 0000.0001) // ======================================================
(PID.TID 0000.0001) // execution environment starting up...
(PID.TID 0000.0001) 
(PID.TID 0000.0001) // MITgcmUV version:  checkpoint67g
(PID.TID 0000.0001) // Build user:        anirban
(PID.TID 0000.0001) // Build host:        login2
(PID.TID 0000.0001) // Build date:        Sat Mar  2 14:32:33 PST 2019
(PID.TID 0000.0001) 
(PID.TID 0000.0001) // =======================================================
(PID.TID 0000.0001) // Execution Environment parameter file "eedata"
(PID.TID 0000.0001) // =======================================================
(PID.TID 0000.0001) ># Example "eedata" file
(PID.TID 0000.0001) ># Lines beginning "#" are comments
(PID.TID 0000.0001) ># nTx - No. threads per process in X
(PID.TID 0000.0001) ># nTy - No. threads per process in Y
(PID.TID 0000.0001) > &EEPARMS
(PID.TID 0000.0001) > nTx=1,
(PID.TID 0000.0001) > nTy=1,
(PID.TID 0000.0001) ># debugMode=.TRUE.,
(PID.TID 0000.0001) > /
(PID.TID 0000.0001) ># Note: Some systems use & as the
(PID.TID 0000.0001) ># namelist terminator. Other systems
(PID.TID 0000.0001) ># use a / character (as shown here).
(PID.TID 0000.0001) 
(PID.TID 0000.0001) // =======================================================
(PID.TID 0000.0001) // Computational Grid Specification ( see files "SIZE.h" )
(PID.TID 0000.0001) //                                  ( and "eedata"       )
(PID.TID 0000.0001) // =======================================================
(PID.TID 0000.0001)      nPx =   97 ; /* No. processes in X */
(PID.TID 0000.0001)      nPy =    1 ; /* No. processes in Y */
(PID.TID 0000.0001)      nSx =   10 ; /* No. tiles in X per process */
(PID.TID 0000.0001)      nSy =    1 ; /* No. tiles in Y per process */
(PID.TID 0000.0001)      sNx =   33 ; /* Tile size in X */
(PID.TID 0000.0001)      sNy =   28 ; /* Tile size in Y */
(PID.TID 0000.0001)      OLx =    4 ; /* Tile overlap distance in X */
(PID.TID 0000.0001)      OLy =    4 ; /* Tile overlap distance in Y */
(PID.TID 0000.0001)      nTx =    1 ; /* No. threads in X per process */
(PID.TID 0000.0001)      nTy =    1 ; /* No. threads in Y per process */
(PID.TID 0000.0001)       Nr =  100 ; /* No. levels in the vertical   */
(PID.TID 0000.0001)       Nx =32010 ; /* Total domain size in X ( = nPx*nSx*sNx ) */
(PID.TID 0000.0001)       Ny =   28 ; /* Total domain size in Y ( = nPy*nSy*sNy ) */
(PID.TID 0000.0001)   nTiles =   10 ; /* Total no. tiles per process ( = nSx*nSy ) */
(PID.TID 0000.0001)   nProcs =   97 ; /* Total no. processes ( = nPx*nPy ) */
(PID.TID 0000.0001) nThreads =    1 ; /* Total no. threads per process ( = nTx*nTy ) */
(PID.TID 0000.0001) usingMPI =    T ; /* Flag used to control whether MPI is in use */
(PID.TID 0000.0001)                   /*  note: To execute a program with MPI calls */
(PID.TID 0000.0001)                   /*  it must be launched appropriately e.g     */
(PID.TID 0000.0001)                   /*  "mpirun -np 64 ......"                    */
(PID.TID 0000.0001) useCoupler=    F ;/* Flag used to control communications with   */
(PID.TID 0000.0001)                   /*  other model components, through a coupler */
(PID.TID 0000.0001) useNest2W_parent =    F ;/* Control 2-W Nesting comm */
(PID.TID 0000.0001) useNest2W_child  =    F ;/* Control 2-W Nesting comm */
(PID.TID 0000.0001) debugMode =    F ; /* print debug msg. (sequence of S/R calls)  */
(PID.TID 0000.0001) printMapIncludesZeros=    F ; /* print zeros in Std.Output maps */
(PID.TID 0000.0001) maxLengthPrt1D=   65 /* maxLength of 1D array printed to StdOut */
(PID.TID 0000.0001) 
(PID.TID 0000.0001) ======= Starting MPI parallel Run =========
(PID.TID 0000.0001)  My Processor Name (len:  9 ) = hpc-22-15
(PID.TID 0000.0001)  Located at (  0,  0) on processor grid (0: 96,0:  0)
(PID.TID 0000.0001)  Origin at  (     1,     1) on global grid (1: 32010,1:    28)
(PID.TID 0000.0001)  North neighbor = processor 0000
(PID.TID 0000.0001)  South neighbor = processor 0000
(PID.TID 0000.0001)   East neighbor = processor 0001
(PID.TID 0000.0001)   West neighbor = processor 0096
(PID.TID 0000.0001) // ======================================================
(PID.TID 0000.0001) // Mapping of tiles to threads
(PID.TID 0000.0001) // ======================================================
(PID.TID 0000.0001) // -o- Thread   1, tiles (   1:  10,   1:   1)
(PID.TID 0000.0001) 
(PID.TID 0000.0001) W2_READPARMS: opening data.exch2
(PID.TID 0000.0001)  OPEN_COPY_DATA_FILE: opening file data.exch2
(PID.TID 0000.0001) // =======================================================
(PID.TID 0000.0001) // Parameter file "data.exch2"
(PID.TID 0000.0001) // =======================================================
(PID.TID 0000.0001) ># EXCH2 Package: Wrapper-2 User Choice
(PID.TID 0000.0001) >#--------------------
(PID.TID 0000.0001) >#  preDefTopol   :: pre-defined Topology selector:
(PID.TID 0000.0001) >#                :: = 0 : topology defined from processing "data.exch2";
(PID.TID 0000.0001) >#                :: = 1 : simple, single facet topology;
(PID.TID 0000.0001) >#                :: = 2 : customized topology (w2_set_myown_facets)
(PID.TID 0000.0001) >#                :: = 3 : 6-facet Cube (3 face-dims: nRed, nGreen, nBlue).
(PID.TID 0000.0001) >#  dimsFacets    :: facet pair of dimensions (n1x,n1y, n2x,n2y ...)
(PID.TID 0000.0001) >#  facetEdgeLink :: Face-Edge connectivity map:
(PID.TID 0000.0001) >#    facetEdgeLink(i,j)=XX.1 : face(j)-edge(i) (i=1,2,3,4 <==> N,S,E,W)
(PID.TID 0000.0001) >#    is connected to Northern edge of face "XX" ; similarly,
(PID.TID 0000.0001) >#    = XX.2 : to Southern.E, XX.3 = Eastern.E, XX.4 = Western.E of face "XX"
(PID.TID 0000.0001) >#  blankList     :: List of "blank" tiles
(PID.TID 0000.0001) >#  W2_mapIO      :: global map IO selector (-1 = old type ; 0 = 1 long line in X
(PID.TID 0000.0001) >#                :: 1 = compact, mostly in Y dir)
(PID.TID 0000.0001) >#  W2_printMsg   :: option for information messages printing
(PID.TID 0000.0001) >#                :: <0 : write to log file ; =0 : minimum print ;
(PID.TID 0000.0001) >#                :: =1 : no duplicated print ; =2 : all processes do print
(PID.TID 0000.0001) >#--------------------
(PID.TID 0000.0001) > &W2_EXCH2_PARM01
(PID.TID 0000.0001) >  W2_printMsg= 0,
(PID.TID 0000.0001) >  W2_mapIO   = 1,
(PID.TID 0000.0001) >#
(PID.TID 0000.0001) >#-- 5 facets llc_270 topology (drop facet 6 and its connection):
(PID.TID 0000.0001) >  preDefTopol = 1,
(PID.TID 0000.0001) >  dimsFacets = 1815, 532,
(PID.TID 0000.0001) >  blankList =
(PID.TID 0000.0001) >   386,
(PID.TID 0000.0001) >   441,
(PID.TID 0000.0001) >   496,
(PID.TID 0000.0001) >   551,
(PID.TID 0000.0001) >   606,
(PID.TID 0000.0001) >   661,
(PID.TID 0000.0001) >   716,
(PID.TID 0000.0001) >   771,
(PID.TID 0000.0001) >   826,
(PID.TID 0000.0001) >   881,
(PID.TID 0000.0001) >   936,
(PID.TID 0000.0001) >   991,
(PID.TID 0000.0001) >   442,
(PID.TID 0000.0001) >   497,
(PID.TID 0000.0001) >   552,
(PID.TID 0000.0001) >   607,
(PID.TID 0000.0001) >   662,
(PID.TID 0000.0001) >   717,
(PID.TID 0000.0001) >   772,
(PID.TID 0000.0001) >   827,
(PID.TID 0000.0001) >   882,
(PID.TID 0000.0001) >   937,
(PID.TID 0000.0001) >   992,
(PID.TID 0000.0001) >   498,
(PID.TID 0000.0001) >   553,
(PID.TID 0000.0001) >   608,
(PID.TID 0000.0001) >   663,
(PID.TID 0000.0001) >   718,
(PID.TID 0000.0001) >   773,
(PID.TID 0000.0001) >   828,
(PID.TID 0000.0001) >   883,
(PID.TID 0000.0001) >   938,
(PID.TID 0000.0001) >   993,
(PID.TID 0000.0001) >   554,
(PID.TID 0000.0001) >   774,
(PID.TID 0000.0001) >   829,
(PID.TID 0000.0001) >   884,
(PID.TID 0000.0001) >   939,
(PID.TID 0000.0001) >   994,
(PID.TID 0000.0001) >   830,
(PID.TID 0000.0001) >   885,
(PID.TID 0000.0001) >   940,
(PID.TID 0000.0001) >   995,
(PID.TID 0000.0001) >   941,
(PID.TID 0000.0001) >   996,
(PID.TID 0000.0001) >   942,
(PID.TID 0000.0001) >   997,
(PID.TID 0000.0001) >    51,
(PID.TID 0000.0001) >    52,
(PID.TID 0000.0001) >    53,
(PID.TID 0000.0001) >   108,
(PID.TID 0000.0001) >    54,
(PID.TID 0000.0001) >   109,
(PID.TID 0000.0001) >   164,
(PID.TID 0000.0001) >   219,
(PID.TID 0000.0001) >   274,
(PID.TID 0000.0001) >   329,
(PID.TID 0000.0001) >   714,
(PID.TID 0000.0001) >   769,
(PID.TID 0000.0001) >   824,
(PID.TID 0000.0001) >   989,
(PID.TID 0000.0001) >    55,
(PID.TID 0000.0001) >   110,
(PID.TID 0000.0001) >   165,
(PID.TID 0000.0001) >   220,
(PID.TID 0000.0001) >   275,
(PID.TID 0000.0001) >   330,
(PID.TID 0000.0001) >   385,
(PID.TID 0000.0001) >   715,
(PID.TID 0000.0001) >   770,
(PID.TID 0000.0001) >   825,
(PID.TID 0000.0001) >   880,
(PID.TID 0000.0001) >   935,
(PID.TID 0000.0001) >   990,
(PID.TID 0000.0001) >  1045,
(PID.TID 0000.0001) > &
(PID.TID 0000.0001) 
(PID.TID 0000.0001) W2_READPARMS: finished reading data.exch2
(PID.TID 0000.0001) W2_useE2ioLayOut=    T ;/* T: use Exch2 glob IO map; F: use model default */
(PID.TID 0000.0001) W2_mapIO        =   1 ; /* select option for Exch2 global-IO map */
(PID.TID 0000.0001) W2_printMsg     =   0 ; /* select option for printing information */
(PID.TID 0000.0001) ===== Start setting W2 TOPOLOGY:
(PID.TID 0000.0001) W2_E2SETUP: number of Active Tiles =     970
(PID.TID 0000.0001) W2_E2SETUP: number of Blank Tiles  =      75
(PID.TID 0000.0001) W2_E2SETUP: Total number of Tiles  =    1045
(PID.TID 0000.0001) W2_SET_SINGLE_FACET: preDefTopol=  1 selected
(PID.TID 0000.0001) W2_E2SETUP: Total number of Facets =       1
(PID.TID 0000.0001) W2_SET_F2F_INDEX: index matrix for connected Facet-Edges:
(PID.TID 0000.0001) W2_SET_MAP_TILES: tile mapping within facet and global Map:
(PID.TID 0000.0001)  W2_mapIO = 1815 (=   55*sNx)
(PID.TID 0000.0001)  Global Map (IO): X-size=    1815 , Y-size=     532
(PID.TID 0000.0001) W2_SET_MAP_TILES: tile offset within facet and global Map:
- facet  1 : X-size=  1815 , Y-size=   532 ; 1045 tiles (Tx,Ty=  55,  19)
(PID.TID 0000.0001) W2_SET_MAP_CUMSUM: setting Facet Matrix for CUMUL-SUM
 Facet Matrix for CUMUL-SUM (nFacets=   1, nActive=   1 ):
- facet  1 :  0  0 ,
(PID.TID 0000.0001) W2_SET_MAP_CUMSUM: done (skip Tile Matrix setting)
(PID.TID 0000.0001) W2_SET_TILE2TILES: tile neighbours and index connection:
(PID.TID 0000.0001) current Max.Nb.Neighbours (e.g., on tile    8 ) =  4
(PID.TID 0000.0001) ===== W2 TILE TOPOLOGY =====
(PID.TID 0000.0001)  TILE:     1 (bi,bj=   1   1 ), Nb of Neighbours =  2
(PID.TID 0000.0001)     NEIGHBOUR  1 = TILE   56 (n=  2) Comm = MSG (PROC=    6)
(PID.TID 0000.0001)     NEIGHBOUR  2 = TILE    2 (n=  3) Comm = PUT (PROC=    1)
(PID.TID 0000.0001)  TILE:     2 (bi,bj=   2   1 ), Nb of Neighbours =  3
(PID.TID 0000.0001)     NEIGHBOUR  1 = TILE   57 (n=  2) Comm = MSG (PROC=    6)
(PID.TID 0000.0001)     NEIGHBOUR  2 = TILE    3 (n=  3) Comm = PUT (PROC=    1)
(PID.TID 0000.0001)     NEIGHBOUR  3 = TILE    1 (n=  2) Comm = PUT (PROC=    1)
(PID.TID 0000.0001)  TILE:     3 (bi,bj=   3   1 ), Nb of Neighbours =  3
(PID.TID 0000.0001)     NEIGHBOUR  1 = TILE   58 (n=  2) Comm = MSG (PROC=    6)
(PID.TID 0000.0001)     NEIGHBOUR  2 = TILE    4 (n=  3) Comm = PUT (PROC=    1)
(PID.TID 0000.0001)     NEIGHBOUR  3 = TILE    2 (n=  2) Comm = PUT (PROC=    1)
(PID.TID 0000.0001)  TILE:     4 (bi,bj=   4   1 ), Nb of Neighbours =  3
(PID.TID 0000.0001)     NEIGHBOUR  1 = TILE   59 (n=  2) Comm = MSG (PROC=    6)
(PID.TID 0000.0001)     NEIGHBOUR  2 = TILE    5 (n=  3) Comm = PUT (PROC=    1)
(PID.TID 0000.0001)     NEIGHBOUR  3 = TILE    3 (n=  2) Comm = PUT (PROC=    1)
(PID.TID 0000.0001)  TILE:     5 (bi,bj=   5   1 ), Nb of Neighbours =  3
(PID.TID 0000.0001)     NEIGHBOUR  1 = TILE   60 (n=  2) Comm = MSG (PROC=    6)
(PID.TID 0000.0001)     NEIGHBOUR  2 = TILE    6 (n=  3) Comm = PUT (PROC=    1)
(PID.TID 0000.0001)     NEIGHBOUR  3 = TILE    4 (n=  2) Comm = PUT (PROC=    1)
(PID.TID 0000.0001)  TILE:     6 (bi,bj=   6   1 ), Nb of Neighbours =  3
(PID.TID 0000.0001)     NEIGHBOUR  1 = TILE   61 (n=  2) Comm = MSG (PROC=    6)
(PID.TID 0000.0001)     NEIGHBOUR  2 = TILE    7 (n=  3) Comm = PUT (PROC=    1)
(PID.TID 0000.0001)     NEIGHBOUR  3 = TILE    5 (n=  2) Comm = PUT (PROC=    1)
(PID.TID 0000.0001)  TILE:     7 (bi,bj=   7   1 ), Nb of Neighbours =  3
(PID.TID 0000.0001)     NEIGHBOUR  1 = TILE   62 (n=  2) Comm = MSG (PROC=    6)
(PID.TID 0000.0001)     NEIGHBOUR  2 = TILE    8 (n=  4) Comm = PUT (PROC=    1)
(PID.TID 0000.0001)     NEIGHBOUR  3 = TILE    6 (n=  2) Comm = PUT (PROC=    1)
(PID.TID 0000.0001)  TILE:     8 (bi,bj=   8   1 ), Nb of Neighbours =  4
(PID.TID 0000.0001)     NEIGHBOUR  1 = TILE   63 (n=  2) Comm = MSG (PROC=    6)
(PID.TID 0000.0001)     NEIGHBOUR  2 = TILE  998 (n=  1) Comm = MSG (PROC=   93)
(PID.TID 0000.0001)     NEIGHBOUR  3 = TILE    9 (n=  4) Comm = PUT (PROC=    1)
(PID.TID 0000.0001)     NEIGHBOUR  4 = TILE    7 (n=  2) Comm = PUT (PROC=    1)
(PID.TID 0000.0001)  TILE:     9 (bi,bj=   9   1 ), Nb of Neighbours =  4
(PID.TID 0000.0001)     NEIGHBOUR  1 = TILE   64 (n=  2) Comm = MSG (PROC=    6)
(PID.TID 0000.0001)     NEIGHBOUR  2 = TILE  999 (n=  1) Comm = MSG (PROC=   93)
(PID.TID 0000.0001)     NEIGHBOUR  3 = TILE   10 (n=  4) Comm = PUT (PROC=    1)
(PID.TID 0000.0001)     NEIGHBOUR  4 = TILE    8 (n=  3) Comm = PUT (PROC=    1)
(PID.TID 0000.0001)  TILE:    10 (bi,bj=  10   1 ), Nb of Neighbours =  4
(PID.TID 0000.0001)     NEIGHBOUR  1 = TILE   65 (n=  2) Comm = MSG (PROC=    6)
(PID.TID 0000.0001)     NEIGHBOUR  2 = TILE 1000 (n=  1) Comm = MSG (PROC=   93)
(PID.TID 0000.0001)     NEIGHBOUR  3 = TILE   11 (n=  4) Comm = MSG (PROC=    2)
(PID.TID 0000.0001)     NEIGHBOUR  4 = TILE    9 (n=  3) Comm = PUT (PROC=    1)
(PID.TID 0000.0001) =====       setting W2 TOPOLOGY: Done
(PID.TID 0000.0001) 
(PID.TID 0000.0001)  INI_PARMS: opening model parameter file "data"
(PID.TID 0000.0001)  OPEN_COPY_DATA_FILE: opening file data
(PID.TID 0000.0001) // =======================================================
(PID.TID 0000.0001) // Parameter file "data"
(PID.TID 0000.0001) // =======================================================
(PID.TID 0000.0001) >### Data file with primary model parameters -----------------------------------
(PID.TID 0000.0001) >#
(PID.TID 0000.0001) >### Continuous equation parameters --------------------------------------------
(PID.TID 0000.0001) > &PARM01
(PID.TID 0000.0001) >## Reference temperatures and salinities for every vertical level.
(PID.TID 0000.0001) > tRef =  18.89, 18.89, 18.89, 18.89, 18.89, 18.87, 18.85, 18.82,
(PID.TID 0000.0001) >         18.80, 18.73, 18.63, 18.49, 18.28, 18.08, 17.86, 17.63,
(PID.TID 0000.0001) >         17.40, 17.18, 16.95, 16.73, 16.52, 16.31, 16.10, 15.89,
(PID.TID 0000.0001) >         15.69, 15.49, 15.28, 15.08, 14.88, 14.67, 14.47, 14.25,
(PID.TID 0000.0001) >         14.03, 13.80, 13.55, 13.29, 13.01, 12.73, 12.42, 12.11,
(PID.TID 0000.0001) >         11.78, 11.43, 11.07, 10.70, 10.31,  9.93,  9.53,  9.11,
(PID.TID 0000.0001) >          8.71,  8.29,  7.89,  7.51,  7.13,  6.78,  6.44,  6.11,
(PID.TID 0000.0001) >          5.81,  5.51,  5.23,  4.97,  4.73,  4.51,  4.30,  4.11,
(PID.TID 0000.0001) >          3.94,  3.78,  3.63,  3.50,  3.38,  3.25,  3.14,  3.04,
(PID.TID 0000.0001) >          2.94,  2.83,  2.74,  2.64,  2.54,  2.45,  2.36,  2.27,
(PID.TID 0000.0001) >          2.19,  2.10,  2.03,  1.95,  1.86,  1.78,  1.70,  1.63,
(PID.TID 0000.0001) >          1.55,  1.48,  1.41,  1.34,  1.27,  1.20,  1.13,  1.06,
(PID.TID 0000.0001) >          1.00,  0.96,  0.93,  0.91,
(PID.TID 0000.0001) > sRef =  34.84, 34.84, 34.84, 34.84, 34.84, 34.84, 34.85, 34.85,
(PID.TID 0000.0001) >         34.85, 34.86, 34.87, 34.88, 34.90, 34.91, 34.93, 34.95,
(PID.TID 0000.0001) >         34.96, 34.98, 34.99, 35.00, 35.01, 35.02, 35.03, 35.04,
(PID.TID 0000.0001) >         35.05, 35.06, 35.07, 35.07, 35.07, 35.07, 35.07, 35.07,
(PID.TID 0000.0001) >         35.07, 35.06, 35.05, 35.04, 35.03, 35.02, 35.01, 34.99,
(PID.TID 0000.0001) >         34.97, 34.95, 34.92, 34.90, 34.87, 34.84, 34.81, 34.78,
(PID.TID 0000.0001) >         34.75, 34.72, 34.69, 34.67, 34.65, 34.62, 34.61, 34.60,
(PID.TID 0000.0001) >         34.59, 34.59, 34.58, 34.59, 34.59, 34.60, 34.60, 34.61,
(PID.TID 0000.0001) >         34.62, 34.63, 34.64, 34.65, 34.66, 34.67, 34.67, 34.68,
(PID.TID 0000.0001) >         34.69, 34.70, 34.71, 34.71, 34.72, 34.72, 34.73, 34.73,
(PID.TID 0000.0001) >         34.73, 34.74, 34.74, 34.74, 34.74, 34.75, 34.74, 34.74,
(PID.TID 0000.0001) >         34.74, 34.74, 34.74, 34.74, 34.74, 34.74, 34.73, 34.73,
(PID.TID 0000.0001) >         34.73, 34.73, 34.73, 34.73,
(PID.TID 0000.0001) > rhonil        = 1029.,
(PID.TID 0000.0001) > rhoConstFresh = 1000.,
(PID.TID 0000.0001) > eosType = 'JMD95Z',
(PID.TID 0000.0001) >#
(PID.TID 0000.0001) >## Various prescriptions for viscosity and diffusivity.
(PID.TID 0000.0001) > viscAr     = 5.e-04,
(PID.TID 0000.0001) > viscA4Grid = 0.0,
(PID.TID 0000.0001) > diffKhT    = 0.E0,
(PID.TID 0000.0001) > diffKhS    = 0.E0,
(PID.TID 0000.0001) > diffK4T    = 0.E10,
(PID.TID 0000.0001) > diffK4S    = 0.E10,
(PID.TID 0000.0001) > diffKrT    = 1.0e-5,
(PID.TID 0000.0001) > diffKrS    = 1.0e-5,
(PID.TID 0000.0001) > bottomDragQuadratic = 0.002,
(PID.TID 0000.0001) > no_slip_sides     = .TRUE.,
(PID.TID 0000.0001) > no_slip_bottom    = .TRUE.,
(PID.TID 0000.0001) > implicitDiffusion = .TRUE.,
(PID.TID 0000.0001) > implicitViscosity = .TRUE.,
(PID.TID 0000.0001) ># horizontal momentum closure
(PID.TID 0000.0001) > viscC4Leith   = 2.0,
(PID.TID 0000.0001) > viscC4Leithd  = 2.0,
(PID.TID 0000.0001) > viscA4GridMax = 0.8,
(PID.TID 0000.0001) >#
(PID.TID 0000.0001) >## Parameters that control numerical methods like advection schemes and
(PID.TID 0000.0001) >#  treatment of the free-surface.
(PID.TID 0000.0001) > tempAdvScheme = 7,
(PID.TID 0000.0001) > saltAdvScheme = 7,
(PID.TID 0000.0001) > implicitFreeSurface     = .TRUE.,
(PID.TID 0000.0001) > staggerTimeStep         = .TRUE.,
(PID.TID 0000.0001) > exactConserv            = .TRUE.,
(PID.TID 0000.0001) > vectorInvariantMomentum = .TRUE.,
(PID.TID 0000.0001) > useAreaViscLength       = .TRUE.,
(PID.TID 0000.0001) > highOrderVorticity      = .TRUE.,
(PID.TID 0000.0001) > multiDimAdvection       = .TRUE.,
(PID.TID 0000.0001) >#
(PID.TID 0000.0001) >## These parameters seem to be associated with the external forcing.
(PID.TID 0000.0001) > convertFW2Salt = -1.,
(PID.TID 0000.0001) > temp_EvPrRn    =  0.,
(PID.TID 0000.0001) > useRealFreshWaterFlux = .FALSE.,
(PID.TID 0000.0001) > allowFreezing         = .FALSE.,
(PID.TID 0000.0001) >#
(PID.TID 0000.0001) >## Parameters associated with bathymetry specification.
(PID.TID 0000.0001) > hFacMin   = 0.2,
(PID.TID 0000.0001) > hFacMinDr = 5.,
(PID.TID 0000.0001) >#
(PID.TID 0000.0001) >## Parameters for reading, writing, and misc numerical details.
(PID.TID 0000.0001) > globalFiles     = .TRUE.,
(PID.TID 0000.0001) > useSingleCpuIO  = .TRUE.,
(PID.TID 0000.0001) > readBinaryPrec  = 32,
(PID.TID 0000.0001) > writeBinaryPrec = 32,
(PID.TID 0000.0001) > debuglevel      = 2,
(PID.TID 0000.0001) >#
(PID.TID 0000.0001) >## Unused parameters.
(PID.TID 0000.0001) ># gravity = 9.81,
(PID.TID 0000.0001) ># viscA4Grid = 2.0E-3,
(PID.TID 0000.0001) ># viscAhGrid = 2.5E-4,
(PID.TID 0000.0001) ># bottomDraglinear    = 1.E-3,
(PID.TID 0000.0001) ># Note: nonlinFreeSurf=1 with rStar=0 breaks the code.
(PID.TID 0000.0001) ># nonlinFreeSurf = 4,
(PID.TID 0000.0001) ># select_rStar   = 1,
(PID.TID 0000.0001) ># hFacInf   = 0.1,
(PID.TID 0000.0001) ># hFacSup   = 5.,
(PID.TID 0000.0001) ># implicSurfPress = 0.6,
(PID.TID 0000.0001) ># implicDiv2DFlow = 0.6,
(PID.TID 0000.0001) ># useSingleCpuInput = .TRUE.,
(PID.TID 0000.0001) ># set to eccov4, make sure minbathy=20m first
(PID.TID 0000.0001) ># debuglevel = -1,
(PID.TID 0000.0001) ># useJamartWetPoints = .TRUE.,
(PID.TID 0000.0001) ># writeBinaryPrec=64,
(PID.TID 0000.0001) > /
(PID.TID 0000.0001) >### Elliptic solver parameters ------------------------------------------------
(PID.TID 0000.0001) > &PARM02
(PID.TID 0000.0001) > cg2dMaxIters       = 1000,
(PID.TID 0000.0001) ># cg2dTargetResidual = 1.E-8,
(PID.TID 0000.0001) > cg2dTargetResWunit = 1e-18,
(PID.TID 0000.0001) >#
(PID.TID 0000.0001) >#cg2dMaxIters       = 100,
(PID.TID 0000.0001) >#cg2dTargetResidual = 1.E-5,
(PID.TID 0000.0001) > &
(PID.TID 0000.0001) >### Time stepping parameters --------------------------------------------------
(PID.TID 0000.0001) > &PARM03
(PID.TID 0000.0001) > deltaT      =    240.,
(PID.TID 0000.0001) > nIter0      =  0,
(PID.TID 0000.0001) > nTimeSteps  =  15,
(PID.TID 0000.0001) > pChkptFreq  = 864000.,
(PID.TID 0000.0001) > monitorFreq =   240.,
(PID.TID 0000.0001) > abEps       = 0.1,
(PID.TID 0000.0001) >## It is unclear what these specify.
(PID.TID 0000.0001) > pickupStrictlyMatch = .FALSE.,
(PID.TID 0000.0001) > forcing_In_AB       = .FALSE.,
(PID.TID 0000.0001) > momDissip_In_AB     = .FALSE.,
(PID.TID 0000.0001) > dumpInitAndLast     = .FALSE.,
(PID.TID 0000.0001) > /
(PID.TID 0000.0001) >### Gridding parameters -------------------------------------------------------
(PID.TID 0000.0001) > &PARM04
(PID.TID 0000.0001) > usingSphericalPolarGrid=.TRUE.,
(PID.TID 0000.0001) >## Specify the height of each vertical level.
(PID.TID 0000.0001) > delR =   5.00,   5.00,   5.00,   5.00,   5.00,   5.00,   5.00,   5.00,   5.00,
(PID.TID 0000.0001) >          5.00,   5.00,   5.00,   5.00,   5.00,   5.00,   5.01,   5.01,   5.02,
(PID.TID 0000.0001) >          5.04,   5.07,   5.12,   5.20,   5.31,   5.49,   5.72,   6.04,   6.45,
(PID.TID 0000.0001) >          6.97,   7.62,   8.42,   9.36,  10.46,  11.72,  13.13,  14.70,  16.40,
(PID.TID 0000.0001) >         18.24,  20.18,  22.21,  24.29,  26.43,  28.57,  30.71,  32.79,  34.82,
(PID.TID 0000.0001) >         36.76,  38.60,  40.30,  41.87,  43.28,  44.54,  45.64,  46.58,  47.38,
(PID.TID 0000.0001) >         48.03,  48.55,  48.96,  49.29,  49.53,  49.72,  49.90,  50.11,  50.41,
(PID.TID 0000.0001) >         50.92,  51.69,  52.87,  54.54,  56.79,  59.67,  63.16,  67.26,  71.83,
(PID.TID 0000.0001) >         76.83,  82.11,  87.61,  93.22,  98.91, 104.64, 110.38, 116.12, 121.87,
(PID.TID 0000.0001) >        127.63, 133.38, 139.12, 144.87, 150.63, 156.38, 162.12, 167.87, 173.63,
(PID.TID 0000.0001) >        179.38, 185.12, 190.87, 196.63, 202.38, 208.12, 213.87, 219.63, 225.38,
(PID.TID 0000.0001) >        231.12,
(PID.TID 0000.0001) > xgOrigin=-81.583335876464844,
(PID.TID 0000.0001) > dxSpacing=0.041666666666667,
(PID.TID 0000.0001) > ygOrigin=26.855293273925781,
(PID.TID 0000.0001) > delYFile = 'delYFile',
(PID.TID 0000.0001) > /
(PID.TID 0000.0001) ># -----------------------------------------------------------------------------
(PID.TID 0000.0001) >### Bathymetry files and initial condition files
(PID.TID 0000.0001) > &PARM05
(PID.TID 0000.0001) > bathyFile       = 'bathy.bin',
(PID.TID 0000.0001) > hydrogThetaFile = 'T0_1815x532x100.bin',
(PID.TID 0000.0001) > hydrogSaltFile  = 'S0_1815x532x100.bin',
(PID.TID 0000.0001) > uVelInitFile    = 'U0_1815x532x100.bin',
(PID.TID 0000.0001) > vVelInitFile    = 'V0_1815x532x100.bin',
(PID.TID 0000.0001) > /
(PID.TID 0000.0001) 
(PID.TID 0000.0001)  INI_PARMS ; starts to read PARM01
(PID.TID 0000.0001)  INI_PARMS ; read PARM01 : OK
(PID.TID 0000.0001)  INI_PARMS ; starts to read PARM02
(PID.TID 0000.0001)  INI_PARMS ; read PARM02 : OK
(PID.TID 0000.0001)  INI_PARMS ; starts to read PARM03
(PID.TID 0000.0001)  INI_PARMS ; read PARM03 : OK
(PID.TID 0000.0001)  INI_PARMS ; starts to read PARM04
(PID.TID 0000.0001)  INI_PARMS ; read PARM04 : OK
(PID.TID 0000.0001)  INI_PARMS ; starts to read PARM05
(PID.TID 0000.0001)  INI_PARMS ; read PARM05 : OK
(PID.TID 0000.0001)  INI_PARMS: finished reading file "data"
(PID.TID 0000.0001)  PACKAGES_BOOT: opening data.pkg
(PID.TID 0000.0001)  OPEN_COPY_DATA_FILE: opening file data.pkg
(PID.TID 0000.0001) // =======================================================
(PID.TID 0000.0001) // Parameter file "data.pkg"
(PID.TID 0000.0001) // =======================================================
(PID.TID 0000.0001) ># Packages
(PID.TID 0000.0001) > &PACKAGES
(PID.TID 0000.0001) > useCAL         = .TRUE.,
(PID.TID 0000.0001) > useEXF         = .TRUE.,
(PID.TID 0000.0001) > useKPP         = .TRUE.,
(PID.TID 0000.0001) > useDiagnostics = .TRUE.,
(PID.TID 0000.0001) > useOBCS        = .TRUE.,
(PID.TID 0000.0001) ># useProfiles=.TRUE.,
(PID.TID 0000.0001) > /
(PID.TID 0000.0001) 
(PID.TID 0000.0001)  PACKAGES_BOOT: finished reading data.pkg
(PID.TID 0000.0001)  PACKAGES_BOOT: On/Off package Summary
 --------  pkgs with a standard "usePKG" On/Off switch in "data.pkg":  --------
 pkg/obcs                 compiled   and   used ( useOBCS                  = T )
 pkg/kpp                  compiled   and   used ( useKPP                   = T )
 pkg/cal                  compiled   and   used ( useCAL                   = T )
 pkg/exf                  compiled   and   used ( useEXF                   = T )
 pkg/diagnostics          compiled   and   used ( useDiagnostics           = T )
 -------- pkgs without standard "usePKG" On/Off switch in "data.pkg":  --------
 pkg/generic_advdiff      compiled   and   used ( useGAD                   = T )
 pkg/mom_common           compiled   and   used ( momStepping              = T )
 pkg/mom_vecinv           compiled   and   used ( +vectorInvariantMomentum = T )
 pkg/monitor              compiled   and   used ( monitorFreq > 0.         = T )
 pkg/debug                compiled but not used ( debugMode                = F )
 pkg/exch2                compiled   and   used
 pkg/rw                   compiled   and   used
 pkg/mdsio                compiled   and   used
(PID.TID 0000.0001)  PACKAGES_BOOT: End of package Summary
(PID.TID 0000.0001) 
(PID.TID 0000.0001) CAL_READPARMS: opening data.cal
(PID.TID 0000.0001)  OPEN_COPY_DATA_FILE: opening file data.cal
(PID.TID 0000.0001) // =======================================================
(PID.TID 0000.0001) // Parameter file "data.cal"
(PID.TID 0000.0001) // =======================================================
(PID.TID 0000.0001) >#
(PID.TID 0000.0001) ># *******************
(PID.TID 0000.0001) ># Calendar Parameters
(PID.TID 0000.0001) ># *******************
(PID.TID 0000.0001) > &CAL_NML
(PID.TID 0000.0001) > TheCalendar='gregorian',
(PID.TID 0000.0001) > startDate_1=20080101,
(PID.TID 0000.0001) > startDate_2=000000,
(PID.TID 0000.0001) > calendarDumps = .TRUE.,
(PID.TID 0000.0001) > &
(PID.TID 0000.0001) 
(PID.TID 0000.0001) CAL_READPARMS: finished reading data.cal
(PID.TID 0000.0001) EXF_READPARMS: opening data.exf
(PID.TID 0000.0001)  OPEN_COPY_DATA_FILE: opening file data.exf
(PID.TID 0000.0001) // =======================================================
(PID.TID 0000.0001) // Parameter file "data.exf"
(PID.TID 0000.0001) // =======================================================
(PID.TID 0000.0001) ># *********************
(PID.TID 0000.0001) ># External Forcing Data
(PID.TID 0000.0001) ># *********************
(PID.TID 0000.0001) >#
(PID.TID 0000.0001) > &EXF_NML_01
(PID.TID 0000.0001) >#
(PID.TID 0000.0001) > useAtmWind        = .TRUE.,
(PID.TID 0000.0001) >#
(PID.TID 0000.0001) >#TO COMBINE WITH ALLOW_ZENITH_ANGLE:
(PID.TID 0000.0001) > exf_albedo        = 0.1,
(PID.TID 0000.0001) > useExfZenIncoming = .TRUE.,
(PID.TID 0000.0001) > select_ZenAlbedo  = 1,
(PID.TID 0000.0001) >#
(PID.TID 0000.0001) > ocean_emissivity  = 0.97,
(PID.TID 0000.0001) > ice_emissivity    = 0.95,
(PID.TID 0000.0001) > snow_emissivity   = 0.95,
(PID.TID 0000.0001) > exf_iprec         = 32,
(PID.TID 0000.0001) > exf_iprec_obcs    = 32,
(PID.TID 0000.0001) > exf_yftype        = 'RL',
(PID.TID 0000.0001) > useExfYearlyFields= .TRUE.,
(PID.TID 0000.0001) > useExfCheckRange  = .FALSE.,
(PID.TID 0000.0001) > useRelativeWind   = .TRUE.,
(PID.TID 0000.0001) > &
(PID.TID 0000.0001) >#
(PID.TID 0000.0001) > &EXF_NML_02
(PID.TID 0000.0001) > apressurefile     = 'era_forcing/ERA5_pres',
(PID.TID 0000.0001) > atempfile         = 'era_forcing/ERA5_tmp2m_degC',
(PID.TID 0000.0001) > aqhfile           = 'era_forcing/ERA5_spfh2m',
(PID.TID 0000.0001) > precipfile        = 'era_forcing/ERA5_rain',
(PID.TID 0000.0001) > uwindfile         = 'era_forcing/ERA5_u10m',
(PID.TID 0000.0001) > vwindfile         = 'era_forcing/ERA5_v10m',
(PID.TID 0000.0001) > swdownfile        = 'era_forcing/ERA5_dsw',
(PID.TID 0000.0001) > lwdownfile        = 'era_forcing/ERA5_dlw',
(PID.TID 0000.0001) > tidePotfile       = 'tide_IAU_EARTH',
(PID.TID 0000.0001) > runofffile        = 'runoff1p2472-360x180x12.bin',
(PID.TID 0000.0001) >#
(PID.TID 0000.0001) > apressurestartdate1 = 19920101,
(PID.TID 0000.0001) > apressurestartdate2 = 000000,
(PID.TID 0000.0001) > apressureperiod   = 3600.0,
(PID.TID 0000.0001) >#
(PID.TID 0000.0001) > atempstartdate1   = 19920101,
(PID.TID 0000.0001) > atempstartdate2   = 000000,
(PID.TID 0000.0001) > atempperiod       = 3600.0,
(PID.TID 0000.0001) >#
(PID.TID 0000.0001) > aqhstartdate1     = 19920101,
(PID.TID 0000.0001) > aqhstartdate2     = 000000,
(PID.TID 0000.0001) > aqhperiod         = 3600.0,
(PID.TID 0000.0001) >#
(PID.TID 0000.0001) > precipstartdate1  = 19920101,
(PID.TID 0000.0001) > precipstartdate2  = 003000,
(PID.TID 0000.0001) > precipperiod      = 3600.0,
(PID.TID 0000.0001) >#
(PID.TID 0000.0001) > uwindstartdate1   = 19920101,
(PID.TID 0000.0001) > uwindstartdate2   = 000000,
(PID.TID 0000.0001) > uwindperiod       = 3600.0,
(PID.TID 0000.0001) >#
(PID.TID 0000.0001) > vwindstartdate1   = 19920101,
(PID.TID 0000.0001) > vwindstartdate2   = 000000,
(PID.TID 0000.0001) > vwindperiod       = 3600.0,
(PID.TID 0000.0001) >#
(PID.TID 0000.0001) > swdownstartdate1  = 19920101,
(PID.TID 0000.0001) > swdownstartdate2  = 003000,
(PID.TID 0000.0001) > swdownperiod      = 3600.0,
(PID.TID 0000.0001) >#
(PID.TID 0000.0001) > lwdownstartdate1  = 19920101,
(PID.TID 0000.0001) > lwdownstartdate2  = 003000,
(PID.TID 0000.0001) > lwdownperiod      = 3600.0,
(PID.TID 0000.0001) > tidePotstartdate1  = 19790101,
(PID.TID 0000.0001) > tidePotstartdate2  = 000000,
(PID.TID 0000.0001) > tidePotperiod      = 3600.0,
(PID.TID 0000.0001) ># "*period=-12" specifies monthly-mean forcing
(PID.TID 0000.0001) > runoffperiod      = -12,
(PID.TID 0000.0001) > &
(PID.TID 0000.0001) >#
(PID.TID 0000.0001) > &EXF_NML_03
(PID.TID 0000.0001) > exf_offset_atemp   = 273.15,
(PID.TID 0000.0001) > exf_inscal_swdown  = -1.0,
(PID.TID 0000.0001) > exf_inscal_lwdown  = -1.0,
(PID.TID 0000.0001) ># 1/365/24/3600 yr/s conversion, runoff [m/yr --> m/s]
(PID.TID 0000.0001) > exf_inscal_runoff = 3.1710e-08,
(PID.TID 0000.0001) > &
(PID.TID 0000.0001) >#
(PID.TID 0000.0001) > &EXF_NML_04
(PID.TID 0000.0001) ># runoff_interpMethod = 0,
(PID.TID 0000.0001) >#
(PID.TID 0000.0001) > apressure_lon0    =   0.0000000D0,
(PID.TID 0000.0001) > apressure_lon_inc =   0.2812500D0,
(PID.TID 0000.0001) > apressure_lat0    = -89.7848850D0,
(PID.TID 0000.0001) > apressure_lat_inc = 0.2786766D0,0.2803199D0,0.2806917D0,0.2808328D0,0.2809011D0,0.2809392D0,0.2809626D0,0.2809781D0,
(PID.TID 0000.0001) >                     0.2809888D0,0.2809965D0,0.2810023D0,0.2810067D0,0.2810102D0,0.2810129D0,0.2810151D0,
(PID.TID 0000.0001) >                     33*0.2810258D0,543*0.2810302D0,33*0.2810258D0,
(PID.TID 0000.0001) >                     0.2810151D0,0.2810129D0,0.2810102D0,0.2810067D0,0.2810023D0,0.2809965D0,0.2809888D0,0.2809781D0,
(PID.TID 0000.0001) >                     0.2809626D0,0.2809392D0,0.2809011D0,0.2808328D0,0.2806917D0,0.2803199D0,0.2786766D0,
(PID.TID 0000.0001) > apressure_nlon    = 1280,
(PID.TID 0000.0001) > apressure_nlat    = 640,
(PID.TID 0000.0001) >#
(PID.TID 0000.0001) > atemp_lon0        =   0.0000000D0,
(PID.TID 0000.0001) > atemp_lon_inc     =   0.2812500D0,
(PID.TID 0000.0001) > atemp_lat0        = -89.7848850D0,
(PID.TID 0000.0001) > atemp_lat_inc     = 0.2786766D0,0.2803199D0,0.2806917D0,0.2808328D0,0.2809011D0,0.2809392D0,0.2809626D0,0.2809781D0,
(PID.TID 0000.0001) >                     0.2809888D0,0.2809965D0,0.2810023D0,0.2810067D0,0.2810102D0,0.2810129D0,0.2810151D0,
(PID.TID 0000.0001) >                     33*0.2810258D0,543*0.2810302D0,33*0.2810258D0,
(PID.TID 0000.0001) >                     0.2810151D0,0.2810129D0,0.2810102D0,0.2810067D0,0.2810023D0,0.2809965D0,0.2809888D0,0.2809781D0,
(PID.TID 0000.0001) >                     0.2809626D0,0.2809392D0,0.2809011D0,0.2808328D0,0.2806917D0,0.2803199D0,0.2786766D0,
(PID.TID 0000.0001) > atemp_nlon        = 1280,
(PID.TID 0000.0001) > atemp_nlat        = 640,
(PID.TID 0000.0001) >#
(PID.TID 0000.0001) > aqh_lon0        =   0.0000000D0,
(PID.TID 0000.0001) > aqh_lon_inc     =   0.2812500D0,
(PID.TID 0000.0001) > aqh_lat0        = -89.7848850D0,
(PID.TID 0000.0001) > aqh_lat_inc     = 0.2786766D0,0.2803199D0,0.2806917D0,0.2808328D0,0.2809011D0,0.2809392D0,0.2809626D0,0.2809781D0,
(PID.TID 0000.0001) >                     0.2809888D0,0.2809965D0,0.2810023D0,0.2810067D0,0.2810102D0,0.2810129D0,0.2810151D0,
(PID.TID 0000.0001) >                     33*0.2810258D0,543*0.2810302D0,33*0.2810258D0,
(PID.TID 0000.0001) >                     0.2810151D0,0.2810129D0,0.2810102D0,0.2810067D0,0.2810023D0,0.2809965D0,0.2809888D0,0.2809781D0,
(PID.TID 0000.0001) >                     0.2809626D0,0.2809392D0,0.2809011D0,0.2808328D0,0.2806917D0,0.2803199D0,0.2786766D0,
(PID.TID 0000.0001) > aqh_nlon        = 1280,
(PID.TID 0000.0001) > aqh_nlat        = 640,
(PID.TID 0000.0001) >#
(PID.TID 0000.0001) > precip_lon0        =   0.0000000D0,
(PID.TID 0000.0001) > precip_lon_inc     =   0.2812500D0,
(PID.TID 0000.0001) > precip_lat0        = -89.7848850D0,
(PID.TID 0000.0001) > precip_lat_inc     = 0.2786766D0,0.2803199D0,0.2806917D0,0.2808328D0,0.2809011D0,0.2809392D0,0.2809626D0,0.2809781D0,
(PID.TID 0000.0001) >                     0.2809888D0,0.2809965D0,0.2810023D0,0.2810067D0,0.2810102D0,0.2810129D0,0.2810151D0,
(PID.TID 0000.0001) >                     33*0.2810258D0,543*0.2810302D0,33*0.2810258D0,
(PID.TID 0000.0001) >                     0.2810151D0,0.2810129D0,0.2810102D0,0.2810067D0,0.2810023D0,0.2809965D0,0.2809888D0,0.2809781D0,
(PID.TID 0000.0001) >                     0.2809626D0,0.2809392D0,0.2809011D0,0.2808328D0,0.2806917D0,0.2803199D0,0.2786766D0,
(PID.TID 0000.0001) > precip_nlon        = 1280,
(PID.TID 0000.0001) > precip_nlat        = 640,
(PID.TID 0000.0001) >#
(PID.TID 0000.0001) > uwind_lon0        =   0.0000000D0,
(PID.TID 0000.0001) > uwind_lon_inc     =   0.2812500D0,
(PID.TID 0000.0001) > uwind_lat0        = -89.7848850D0,
(PID.TID 0000.0001) > uwind_lat_inc     = 0.2786766D0,0.2803199D0,0.2806917D0,0.2808328D0,0.2809011D0,0.2809392D0,0.2809626D0,0.2809781D0,
(PID.TID 0000.0001) >                     0.2809888D0,0.2809965D0,0.2810023D0,0.2810067D0,0.2810102D0,0.2810129D0,0.2810151D0,
(PID.TID 0000.0001) >                     33*0.2810258D0,543*0.2810302D0,33*0.2810258D0,
(PID.TID 0000.0001) >                     0.2810151D0,0.2810129D0,0.2810102D0,0.2810067D0,0.2810023D0,0.2809965D0,0.2809888D0,0.2809781D0,
(PID.TID 0000.0001) >                     0.2809626D0,0.2809392D0,0.2809011D0,0.2808328D0,0.2806917D0,0.2803199D0,0.2786766D0,
(PID.TID 0000.0001) > uwind_nlon        = 1280,
(PID.TID 0000.0001) > uwind_nlat        = 640,
(PID.TID 0000.0001) >#
(PID.TID 0000.0001) > vwind_lon0        =   0.0000000D0,
(PID.TID 0000.0001) > vwind_lon_inc     =   0.2812500D0,
(PID.TID 0000.0001) > vwind_lat0        = -89.7848850D0,
(PID.TID 0000.0001) > vwind_lat_inc     = 0.2786766D0,0.2803199D0,0.2806917D0,0.2808328D0,0.2809011D0,0.2809392D0,0.2809626D0,0.2809781D0,
(PID.TID 0000.0001) >                     0.2809888D0,0.2809965D0,0.2810023D0,0.2810067D0,0.2810102D0,0.2810129D0,0.2810151D0,
(PID.TID 0000.0001) >                     33*0.2810258D0,543*0.2810302D0,33*0.2810258D0,
(PID.TID 0000.0001) >                     0.2810151D0,0.2810129D0,0.2810102D0,0.2810067D0,0.2810023D0,0.2809965D0,0.2809888D0,0.2809781D0,
(PID.TID 0000.0001) >                     0.2809626D0,0.2809392D0,0.2809011D0,0.2808328D0,0.2806917D0,0.2803199D0,0.2786766D0,
(PID.TID 0000.0001) > vwind_nlon        = 1280,
(PID.TID 0000.0001) > vwind_nlat        = 640,
(PID.TID 0000.0001) >#
(PID.TID 0000.0001) > swdown_lon0        =   0.0000000D0,
(PID.TID 0000.0001) > swdown_lon_inc     =   0.2812500D0,
(PID.TID 0000.0001) > swdown_lat0        = -89.7848850D0,
(PID.TID 0000.0001) > swdown_lat_inc     = 0.2786766D0,0.2803199D0,0.2806917D0,0.2808328D0,0.2809011D0,0.2809392D0,0.2809626D0,0.2809781D0,
(PID.TID 0000.0001) >                     0.2809888D0,0.2809965D0,0.2810023D0,0.2810067D0,0.2810102D0,0.2810129D0,0.2810151D0,
(PID.TID 0000.0001) >                     33*0.2810258D0,543*0.2810302D0,33*0.2810258D0,
(PID.TID 0000.0001) >                     0.2810151D0,0.2810129D0,0.2810102D0,0.2810067D0,0.2810023D0,0.2809965D0,0.2809888D0,0.2809781D0,
(PID.TID 0000.0001) >                     0.2809626D0,0.2809392D0,0.2809011D0,0.2808328D0,0.2806917D0,0.2803199D0,0.2786766D0,
(PID.TID 0000.0001) > swdown_nlon        = 1280,
(PID.TID 0000.0001) > swdown_nlat        = 640,
(PID.TID 0000.0001) >#
(PID.TID 0000.0001) > lwdown_lon0        =   0.0000000D0,
(PID.TID 0000.0001) > lwdown_lon_inc     =   0.2812500D0,
(PID.TID 0000.0001) > lwdown_lat0        = -89.7848850D0,
(PID.TID 0000.0001) > lwdown_lat_inc     = 0.2786766D0,0.2803199D0,0.2806917D0,0.2808328D0,0.2809011D0,0.2809392D0,0.2809626D0,0.2809781D0,
(PID.TID 0000.0001) >                     0.2809888D0,0.2809965D0,0.2810023D0,0.2810067D0,0.2810102D0,0.2810129D0,0.2810151D0,
(PID.TID 0000.0001) >                     33*0.2810258D0,543*0.2810302D0,33*0.2810258D0,
(PID.TID 0000.0001) >                     0.2810151D0,0.2810129D0,0.2810102D0,0.2810067D0,0.2810023D0,0.2809965D0,0.2809888D0,0.2809781D0,
(PID.TID 0000.0001) >                     0.2809626D0,0.2809392D0,0.2809011D0,0.2808328D0,0.2806917D0,0.2803199D0,0.2786766D0,
(PID.TID 0000.0001) > lwdown_nlon        = 1280,
(PID.TID 0000.0001) > lwdown_nlat        = 640,
(PID.TID 0000.0001) >#
(PID.TID 0000.0001) > tidePot_lon0       = 0.0D0,
(PID.TID 0000.0001) > tidePot_lon_inc    = 1.0D0,
(PID.TID 0000.0001) > tidePot_lat0       = -90.0D0,
(PID.TID 0000.0001) > tidePot_lat_inc    = 180*1.0D0,
(PID.TID 0000.0001) > tidePot_nlon       = 360,
(PID.TID 0000.0001) > tidePot_nlat       = 181,
(PID.TID 0000.0001) >#
(PID.TID 0000.0001) > runoff_lon0       = 0.50D0,
(PID.TID 0000.0001) > runoff_lon_inc    = 1.0D0,
(PID.TID 0000.0001) > runoff_lat0       = -89.5D0,
(PID.TID 0000.0001) > runoff_lat_inc    = 179*1.,
(PID.TID 0000.0001) > runoff_nlon       = 360,
(PID.TID 0000.0001) > runoff_nlat       = 180,
(PID.TID 0000.0001) > &
(PID.TID 0000.0001) >#
(PID.TID 0000.0001) > &EXF_NML_OBCS
(PID.TID 0000.0001) >  obcsSstartdate1   = 20071215,
(PID.TID 0000.0001) >  obcsSstartdate2   = 060000,
(PID.TID 0000.0001) >  obcsSperiod       = 2629800.0,
(PID.TID 0000.0001) >#
(PID.TID 0000.0001) >  obcsNstartdate1   = 20071215,
(PID.TID 0000.0001) >  obcsNstartdate2   = 060000,
(PID.TID 0000.0001) >  obcsNperiod       = 2629800.0,
(PID.TID 0000.0001) > &
(PID.TID 0000.0001) 
(PID.TID 0000.0001) EXF_READPARMS: reading EXF_NML_01
(PID.TID 0000.0001) EXF_READPARMS: reading EXF_NML_02
(PID.TID 0000.0001) EXF_READPARMS: reading EXF_NML_03
(PID.TID 0000.0001) EXF_READPARMS: reading EXF_NML_04
(PID.TID 0000.0001) EXF_READPARMS: reading EXF_NML_OBCS
(PID.TID 0000.0001) EXF_READPARMS: finished reading data.exf
(PID.TID 0000.0001)  OBCS_READPARMS: opening data.obcs
(PID.TID 0000.0001)  OPEN_COPY_DATA_FILE: opening file data.obcs
(PID.TID 0000.0001) // =======================================================
(PID.TID 0000.0001) // Parameter file "data.obcs"
(PID.TID 0000.0001) // =======================================================
(PID.TID 0000.0001) ># ***************
(PID.TID 0000.0001) ># Open boundaries
(PID.TID 0000.0001) ># ***************
(PID.TID 0000.0001) > &OBCS_PARM01
(PID.TID 0000.0001) >OB_Jnorth = 1815*531,
(PID.TID 0000.0001) >OB_Jsouth = 1815*2,
(PID.TID 0000.0001) >#
(PID.TID 0000.0001) > useOBCSprescribe=.TRUE.,
(PID.TID 0000.0001) ># useOBCSsponge=.true.,
(PID.TID 0000.0001) > OBCS_monSelect = 3,
(PID.TID 0000.0001) ># >0: use 1rst O. upwind adv-scheme @ OB (=1: only if outflow)
(PID.TID 0000.0001) > OBCS_u1_adv_T = 1,
(PID.TID 0000.0001) > OBCS_u1_adv_S = 1,
(PID.TID 0000.0001) >#
(PID.TID 0000.0001) > OBSsFile='OBSs_1815x100x26.bin',
(PID.TID 0000.0001) > OBStFile='OBSt_1815x100x26.bin',
(PID.TID 0000.0001) > OBSuFile='OBSu_1815x100x26.bin',
(PID.TID 0000.0001) > OBSvFile='OBSv_1815x100x26.bin',
(PID.TID 0000.0001) >#
(PID.TID 0000.0001) > OBNsFile='OBNs_1815x100x26.bin',
(PID.TID 0000.0001) > OBNtFile='OBNt_1815x100x26.bin',
(PID.TID 0000.0001) > OBNuFile='OBNu_1815x100x26.bin',
(PID.TID 0000.0001) > OBNvFile='OBNv_1815x100x26.bin',
(PID.TID 0000.0001) ># Balancing
(PID.TID 0000.0001) > useOBCSbalance = .TRUE.,
(PID.TID 0000.0001) > OBCS_balanceFacN = -1,
(PID.TID 0000.0001) > OBCS_balanceFacS = -1,
(PID.TID 0000.0001) >## *****************************************
(PID.TID 0000.0001) >## Tidal BC parameters
(PID.TID 0000.0001) >## *****************************************
(PID.TID 0000.0001) > useOBCStides = .TRUE.,
(PID.TID 0000.0001) >##components   = M2       S2     N2       K2       K1      O1       P1       Q1       Mf         Mm
(PID.TID 0000.0001) >##periods (hr) = 12.4206  12     12.6583  11.9672  23.9345 25.8193  24.0659  26.8684  327.8599   661.31
(PID.TID 0000.0001) >##period(sec)  = 44714.165 43200.001 45570.054 43082.05 86164.077 92949.636 86637.2 96726.086 1180295.5 2380715.9
(PID.TID 0000.0001) >##components      m2        s2        n2        k2        k1        o1        p1        q1        mf        mm        m4        ms4       mn4
(PID.TID 0000.0001) >##period (hr): 12.420601 12.000000 12.658348 11.967236 23.934466 25.819343 24.065889 26.868357 327.859874 661.309962 6.210303 6.103339 6.269178
(PID.TID 0000.0001) >##period (s):  44714.165192 43200.001287 45570.053512 43082.050319 86164.077005 92949.635701 86637.199772 96726.085703 1180295.545550 2380715.863587 22357.090551 21972.021930 22569.042448
(PID.TID 0000.0001) >##components      m2        s2        n2        k2        k1        o1        p1        q1        m4        ms4         mn4        mm           mf
(PID.TID 0000.0001) > tidalPeriod  = 44714.165 43200.001 45570.054 43082.050 86164.077 92949.636 86637.200 96726.086 22357.091 21972.022 22569.042 2380715.864 1180295.546,
(PID.TID 0000.0001) > OBSamFile='OBSvam_1815x13.bin',
(PID.TID 0000.0001) > OBNamFile='OBNvam_1815x13.bin',
(PID.TID 0000.0001) > OBSphFile='OBSvph_1815x13.bin',
(PID.TID 0000.0001) > OBNphFile='OBNvph_1815x13.bin',
(PID.TID 0000.0001) > OBEamFile='OBEuam_532x13.bin',
(PID.TID 0000.0001) > OBEphFile='OBEuph_532x13.bin',
(PID.TID 0000.0001) > &
(PID.TID 0000.0001) ># *****************************************
(PID.TID 0000.0001) ># Sponge Layer Parameters.
(PID.TID 0000.0001) ># *****************************************
(PID.TID 0000.0001) > &OBCS_PARM03
(PID.TID 0000.0001) ># Urelaxobcsinner=2629800.E0,
(PID.TID 0000.0001) ># Urelaxobcsbound=43200.E0,
(PID.TID 0000.0001) >#
(PID.TID 0000.0001) ># Vrelaxobcsinner=2629800.E0,
(PID.TID 0000.0001) ># Vrelaxobcsbound=43200.E0,
(PID.TID 0000.0001) >#
(PID.TID 0000.0001) ># spongeThickness=16,
(PID.TID 0000.0001) > &
(PID.TID 0000.0001) 
(PID.TID 0000.0001)  OBCS_READPARMS: finished reading data.obcs
(PID.TID 0000.0001)  OB_indexUnset = /* unset OB index value (i.e. no OB) */
(PID.TID 0000.0001)                       0
(PID.TID 0000.0001)     ;
(PID.TID 0000.0001)  Northern OB global indices : OB_Jnorth =
(PID.TID 0000.0001)  1815 @      531                            /* I =  1:*** */
(PID.TID 0000.0001)  Southern OB global indices : OB_Jsouth =
(PID.TID 0000.0001)  1815 @        2                            /* I =  1:*** */
(PID.TID 0000.0001)  Eastern  OB global indices : OB_Ieast =
(PID.TID 0000.0001)   532 @        0                            /* J =  1:532 */
(PID.TID 0000.0001)  Western  OB global indices : OB_Iwest =
(PID.TID 0000.0001)   532 @        0                            /* J =  1:532 */
(PID.TID 0000.0001) 
(PID.TID 0000.0001)  KPP_READPARMS: opening data.kpp
(PID.TID 0000.0001)  OPEN_COPY_DATA_FILE: opening file data.kpp
(PID.TID 0000.0001) // =======================================================
(PID.TID 0000.0001) // Parameter file "data.kpp"
(PID.TID 0000.0001) // =======================================================
(PID.TID 0000.0001) ># KPP parameters
(PID.TID 0000.0001) > &KPP_PARM01
(PID.TID 0000.0001) >### KPPmixingMaps   = .FALSE.,
(PID.TID 0000.0001) >### KPPwriteState   = .FALSE.,
(PID.TID 0000.0001) >### kpp_dumpFreq    = 0.,
(PID.TID 0000.0001) >### kpp_tavefreq    = 0.,
(PID.TID 0000.0001) >### Ricr            = 0.3559,
(PID.TID 0000.0001) >### Riinfty         = 0.6998,
(PID.TID 0000.0001) > &
(PID.TID 0000.0001) 
(PID.TID 0000.0001)  KPP_READPARMS ; starts to read KPP_PARM01
(PID.TID 0000.0001)  KPP_READPARMS ; read KPP_PARM01 : OK
(PID.TID 0000.0001)  KPP_READPARMS: finished reading data.kpp
(PID.TID 0000.0001)  DIAGNOSTICS_READPARMS: opening data.diagnostics
(PID.TID 0000.0001)  OPEN_COPY_DATA_FILE: opening file data.diagnostics
(PID.TID 0000.0001) // =======================================================
(PID.TID 0000.0001) // Parameter file "data.diagnostics"
(PID.TID 0000.0001) // =======================================================
(PID.TID 0000.0001) ># Diagnostic Package Choices
(PID.TID 0000.0001) >#-----------------
(PID.TID 0000.0001) ># for each output-stream:
(PID.TID 0000.0001) >#  filename(n) : prefix of the output file name (only 8.c long) for outp.stream n
(PID.TID 0000.0001) >#  frequency(n):< 0 : write snap-shot output every multiple of |frequency| (iter)
(PID.TID 0000.0001) >#               > 0 : write time-average output every multiple of frequency (iter)
(PID.TID 0000.0001) >#  levels(:,n) : list of levels to write to file (Notes: declared as REAL)
(PID.TID 0000.0001) >#                 when this entry is missing, select all common levels of this list
(PID.TID 0000.0001) >#  fields(:,n) : list of diagnostics fields (8.c) (see "available_diagnostics" file
(PID.TID 0000.0001) >#                 for the list of all available diag. in this particular config)
(PID.TID 0000.0001) >#--------------------------------------------------------------------
(PID.TID 0000.0001) >#
(PID.TID 0000.0001) > &diagnostics_list
(PID.TID 0000.0001) >#
(PID.TID 0000.0001) >   dumpatlast = .TRUE.,
(PID.TID 0000.0001) >#
(PID.TID 0000.0001) >#---
(PID.TID 0000.0001) >  frequency(1) = 3600.0,
(PID.TID 0000.0001) >   fields(1:5,1) = 'ETAN', 'oceTAUX', 'oceTAUY', 'EXFuwind', 'EXFvwind',
(PID.TID 0000.0001) >   filename(1) = 'diags/surface',
(PID.TID 0000.0001) >#---
(PID.TID 0000.0001) >  frequency(2) = 2592000.0,
(PID.TID 0000.0001) >   fields(1:9,2)='THETA','SALT','UVEL','VVEL','WVEL','UVELSQ','VVELSQ','WTHMASS','WSLTMASS',
(PID.TID 0000.0001) >   filename(2) = 'diags/interior',
(PID.TID 0000.0001) >#   levels(1:55,2) =  1., 2., 3., 4., 5., 6., 7., 8., 9.,10.,11.,13.,15.,
(PID.TID 0000.0001) >#                     17.,19.,21.,23.,25.,27.,29.,31.,33.,35.,37.,39.,41.,43.,45.,
(PID.TID 0000.0001) >#                     47.,49.,51.,53.,55.,57.,59.,61.,63.,65.,67.,69.,71.,73.,75.,
(PID.TID 0000.0001) >#                     77.,79.,81.,83.,85.,87.,89.,91.,93.,95.,97.,99.,
(PID.TID 0000.0001) > /
(PID.TID 0000.0001) >#
(PID.TID 0000.0001) >#
(PID.TID 0000.0001) ># Parameter for Diagnostics of per level statistics:
(PID.TID 0000.0001) >#-----------------
(PID.TID 0000.0001) ># for each output-stream:
(PID.TID 0000.0001) >#  stat_fname(n) : prefix of the output file name (only 8.c long) for outp.stream n
(PID.TID 0000.0001) >#  stat_freq(n):< 0 : write snap-shot output every |stat_freq| seconds
(PID.TID 0000.0001) >#               > 0 : write time-average output every stat_freq seconds
(PID.TID 0000.0001) >#  stat_phase(n)    : write at time = stat_phase + multiple of |stat_freq|
(PID.TID 0000.0001) >#  stat_region(:,n) : list of "regions" (default: 1 region only=global)
(PID.TID 0000.0001) >#  stat_fields(:,n) : list of diagnostics fields (8.c) (see "available_diagnostics.log"
(PID.TID 0000.0001) >#                 file for the list of all available diag. in this particular config)
(PID.TID 0000.0001) >#-----------------
(PID.TID 0000.0001) > &DIAG_STATIS_PARMS
(PID.TID 0000.0001) ># diagSt_regMaskFile='basin_masks_eccollc_90x50.bin',
(PID.TID 0000.0001) ># nSetRegMskFile=1,
(PID.TID 0000.0001) ># set_regMask(1)= 1,  1,  1,  1,  1,  1,  1,  1,  1,
(PID.TID 0000.0001) >#                 1,  1,  1,  1,  1,  1,  1,  1
(PID.TID 0000.0001) ># val_regMask(1)= 1., 2., 3., 4., 5., 6., 7., 8., 9.,
(PID.TID 0000.0001) >#                10.,11.,12.,13.,14.,15.,16.,17.
(PID.TID 0000.0001) >##---
(PID.TID 0000.0001) ># stat_fields(1,1)= 'ETAN    ','ETANSQ  ','DETADT2 ',
(PID.TID 0000.0001) >#                   'UVEL    ','VVEL    ','WVEL    ',
(PID.TID 0000.0001) >#                   'THETA   ','SALT    ',
(PID.TID 0000.0001) >#    stat_fname(1)= 'dynStDiag',
(PID.TID 0000.0001) >#     stat_freq(1)= 3153600.,
(PID.TID 0000.0001) ># stat_region(1,1)=  1, 2, 3, 4, 5, 6, 7, 8, 9,
(PID.TID 0000.0001) >#                   10,11,12,13,14,15,16,17
(PID.TID 0000.0001) >##---
(PID.TID 0000.0001) ># stat_fields(1,2)= 'oceTAUX ','oceTAUY ',
(PID.TID 0000.0001) >#                   'surForcT','surForcS','TFLUX   ','SFLUX   ',
(PID.TID 0000.0001) >#                   'oceQnet ','oceSflux','oceFWflx',
(PID.TID 0000.0001) >#    stat_fname(2)= 'surfStDiag',
(PID.TID 0000.0001) >#     stat_freq(2)= 3153600.,
(PID.TID 0000.0001) ># stat_region(1,2)=  1, 2, 3, 4, 5, 6, 7, 8, 9,
(PID.TID 0000.0001) >#                   10,11,12,13,14,15,16,17
(PID.TID 0000.0001) > /
(PID.TID 0000.0001) 
(PID.TID 0000.0001) S/R DIAGNOSTICS_READPARMS, read namelist "diagnostics_list": start
(PID.TID 0000.0001) S/R DIAGNOSTICS_READPARMS, read namelist "diagnostics_list": OK
(PID.TID 0000.0001) S/R DIAGNOSTICS_READPARMS, read namelist "DIAG_STATIS_PARMS": start
(PID.TID 0000.0001) S/R DIAGNOSTICS_READPARMS, read namelist "DIAG_STATIS_PARMS": OK
(PID.TID 0000.0001)  DIAGNOSTICS_READPARMS: global parameter summary:
(PID.TID 0000.0001)  dumpAtLast = /* always write time-ave diags at the end */
(PID.TID 0000.0001)                   T
(PID.TID 0000.0001)     ;
(PID.TID 0000.0001)  diag_mnc =   /* write NetCDF output files */
(PID.TID 0000.0001)                   F
(PID.TID 0000.0001)     ;
(PID.TID 0000.0001)  useMissingValue = /* put MissingValue where mask = 0 */
(PID.TID 0000.0001)                   F
(PID.TID 0000.0001)     ;
(PID.TID 0000.0001)  diagCG_maxIters = /* max number of iters in diag_cg2d */
(PID.TID 0000.0001)                    1000
(PID.TID 0000.0001)     ;
(PID.TID 0000.0001)  diagCG_resTarget = /* residual target for diag_cg2d */
(PID.TID 0000.0001)                 1.000000000000000E-07
(PID.TID 0000.0001)     ;
(PID.TID 0000.0001)  diagCG_pcOffDFac = /* preconditioner off-diagonal factor */
(PID.TID 0000.0001)                 9.611687812379854E-01
(PID.TID 0000.0001)     ;
(PID.TID 0000.0001) -----------------------------------------------------
(PID.TID 0000.0001)  DIAGNOSTICS_READPARMS: active diagnostics summary:
(PID.TID 0000.0001) -----------------------------------------------------
(PID.TID 0000.0001) Creating Output Stream: diags/surface
(PID.TID 0000.0001) Output Frequency:       3600.000000 ; Phase:           0.000000
(PID.TID 0000.0001)  Averaging Freq.:       3600.000000 , Phase:           0.000000 , Cycle:   1
(PID.TID 0000.0001)  missing value: -9.990000000000E+02
(PID.TID 0000.0001)  Levels:    will be set later
(PID.TID 0000.0001)  Fields:    ETAN     oceTAUX  oceTAUY  EXFuwind EXFvwind
(PID.TID 0000.0001) Creating Output Stream: diags/interior
(PID.TID 0000.0001) Output Frequency:    2592000.000000 ; Phase:           0.000000
(PID.TID 0000.0001)  Averaging Freq.:    2592000.000000 , Phase:           0.000000 , Cycle:   1
(PID.TID 0000.0001)  missing value: -9.990000000000E+02
(PID.TID 0000.0001)  Levels:    will be set later
(PID.TID 0000.0001)  Fields:    THETA    SALT     UVEL     VVEL     WVEL     UVELSQ   VVELSQ   WTHMASS  WSLTMASS
(PID.TID 0000.0001) -----------------------------------------------------
(PID.TID 0000.0001)  DIAGNOSTICS_READPARMS: statistics diags. summary:
(PID.TID 0000.0001) -----------------------------------------------------
(PID.TID 0000.0001) 
(PID.TID 0000.0001) SET_PARMS: done
(PID.TID 0000.0001)  MDS_READVEC_LOC: open file: delYFile
(PID.TID 0000.0001) S/R LOAD_GRID_SPACING: delY loaded from file: delYFile
(PID.TID 0000.0001) Enter INI_VERTICAL_GRID: setInterFDr=    T ; setCenterDr=    F
(PID.TID 0000.0001) %MON XC_max                       =  -5.9791692097973E+00
(PID.TID 0000.0001) %MON XC_min                       =  -8.1562502543132E+01
(PID.TID 0000.0001) %MON XC_mean                      =  -4.3137201855846E+01
(PID.TID 0000.0001) %MON XC_sd                        =   2.0424998826490E+01
(PID.TID 0000.0001) %MON XG_max                       =  -6.0000025431306E+00
(PID.TID 0000.0001) %MON XG_min                       =  -8.1583335876465E+01
(PID.TID 0000.0001) %MON XG_mean                      =  -4.3158035189179E+01
(PID.TID 0000.0001) %MON XG_sd                        =   2.0424998826490E+01
(PID.TID 0000.0001) %MON DXC_max                      =   4.1321680787049E+03
(PID.TID 0000.0001) %MON DXC_min                      =   3.3626505081640E+03
(PID.TID 0000.0001) %MON DXC_mean                     =   3.7688379354867E+03
(PID.TID 0000.0001) %MON DXC_sd                       =   2.2123866065857E+02
(PID.TID 0000.0001) %MON DXF_max                      =   4.1321680787049E+03
(PID.TID 0000.0001) %MON DXF_min                      =   3.3626505081640E+03
(PID.TID 0000.0001) %MON DXF_mean                     =   3.7688379354867E+03
(PID.TID 0000.0001) %MON DXF_sd                       =   2.2123866065857E+02
(PID.TID 0000.0001) %MON DXG_max                      =   4.1327922661025E+03
(PID.TID 0000.0001) %MON DXG_min                      =   3.3634327493196E+03
(PID.TID 0000.0001) %MON DXG_mean                     =   3.7695610776573E+03
(PID.TID 0000.0001) %MON DXG_sd                       =   2.2119398199636E+02
(PID.TID 0000.0001) %MON DXV_max                      =   4.1327922661025E+03
(PID.TID 0000.0001) %MON DXV_min                      =   3.3634327493196E+03
(PID.TID 0000.0001) %MON DXV_mean                     =   3.7695610776573E+03
(PID.TID 0000.0001) %MON DXV_sd                       =   2.2119398199636E+02
(PID.TID 0000.0001) %MON YC_max                       =   4.3456317901611E+01
(PID.TID 0000.0001) %MON YC_min                       =   2.6872378349304E+01
(PID.TID 0000.0001) %MON YC_mean                      =   3.5275583727019E+01
(PID.TID 0000.0001) %MON YC_sd                        =   4.7474247172398E+00
(PID.TID 0000.0001) %MON YG_max                       =   4.3442249298096E+01
(PID.TID 0000.0001) %MON YG_min                       =   2.6855293273926E+01
(PID.TID 0000.0001) %MON YG_mean                      =   3.5259938400870E+01
(PID.TID 0000.0001) %MON YG_sd                        =   4.7482908185653E+00
(PID.TID 0000.0001) %MON DYC_max                      =   3.7984208896988E+03
(PID.TID 0000.0001) %MON DYC_min                      =   3.1290718017248E+03
(PID.TID 0000.0001) %MON DYC_mean                     =   3.4788279395744E+03
(PID.TID 0000.0001) %MON DYC_sd                       =   1.9225943821366E+02
(PID.TID 0000.0001) %MON DYF_max                      =   3.7989510252033E+03
(PID.TID 0000.0001) %MON DYF_min                      =   3.1282235849176E+03
(PID.TID 0000.0001) %MON DYF_mean                     =   3.4788156621358E+03
(PID.TID 0000.0001) %MON DYF_sd                       =   1.9277710102670E+02
(PID.TID 0000.0001) %MON DYG_max                      =   3.7989510252033E+03
(PID.TID 0000.0001) %MON DYG_min                      =   3.1282235849176E+03
(PID.TID 0000.0001) %MON DYG_mean                     =   3.4788156621358E+03
(PID.TID 0000.0001) %MON DYG_sd                       =   1.9277710102670E+02
(PID.TID 0000.0001) %MON DYU_max                      =   3.7984208896988E+03
(PID.TID 0000.0001) %MON DYU_min                      =   3.1290718017248E+03
(PID.TID 0000.0001) %MON DYU_mean                     =   3.4788279395744E+03
(PID.TID 0000.0001) %MON DYU_sd                       =   1.9225943821366E+02
(PID.TID 0000.0001) %MON RA_max                       =   1.5697903926271E+07
(PID.TID 0000.0001) %MON RA_min                       =   1.0519122521772E+07
(PID.TID 0000.0001) %MON RA_mean                      =   1.3153740588860E+07
(PID.TID 0000.0001) %MON RA_sd                        =   1.4919356433086E+06
(PID.TID 0000.0001) %MON RAW_max                      =   1.5697903926271E+07
(PID.TID 0000.0001) %MON RAW_min                      =   1.0519122521772E+07
(PID.TID 0000.0001) %MON RAW_mean                     =   1.3153740588860E+07
(PID.TID 0000.0001) %MON RAW_sd                       =   1.4919356433086E+06
(PID.TID 0000.0001) %MON RAS_max                      =   1.5693341326465E+07
(PID.TID 0000.0001) %MON RAS_min                      =   1.0524423130684E+07
(PID.TID 0000.0001) %MON RAS_mean                     =   1.3156063218928E+07
(PID.TID 0000.0001) %MON RAS_sd                       =   1.4887747834009E+06
(PID.TID 0000.0001) %MON RAZ_max                      =   1.5693341326465E+07
(PID.TID 0000.0001) %MON RAZ_min                      =   1.0524423130684E+07
(PID.TID 0000.0001) %MON RAZ_mean                     =   1.3156063218928E+07
(PID.TID 0000.0001) %MON RAZ_sd                       =   1.4887747834009E+06
(PID.TID 0000.0001) %MON AngleCS_max                  =   1.0000000000000E+00
(PID.TID 0000.0001) %MON AngleCS_min                  =   1.0000000000000E+00
(PID.TID 0000.0001) %MON AngleCS_mean                 =   1.0000000000000E+00
(PID.TID 0000.0001) %MON AngleCS_sd                   =   1.1102230246252E-16
(PID.TID 0000.0001) %MON AngleSN_max                  =   0.0000000000000E+00
(PID.TID 0000.0001) %MON AngleSN_min                  =   0.0000000000000E+00
(PID.TID 0000.0001) %MON AngleSN_mean                 =   0.0000000000000E+00
(PID.TID 0000.0001) %MON AngleSN_sd                   =   0.0000000000000E+00
(PID.TID 0000.0001)  MDS_READ_FIELD: opening global file: bathy.bin
(PID.TID 0000.0001) // =======================================================
(PID.TID 0000.0001) // Field Model R_low (ini_masks_etc)
(PID.TID 0000.0001) // CMIN =         -5.628649414062500E+03
(PID.TID 0000.0001) // CMAX =         -5.000000000000000E+00
(PID.TID 0000.0001) // CINT =          2.082833116319445E+02
(PID.TID 0000.0001) // SYMBOLS (CMIN->CMAX): -abcdefghijklmnopqrstuvwxyz+
(PID.TID 0000.0001) //                  0.0: .
(PID.TID 0000.0001) // RANGE I (Lo:Hi:Step):(    -3:   334:     1)
(PID.TID 0000.0001) // RANGE J (Lo:Hi:Step):(    32:    -3:    -1)
(PID.TID 0000.0001) // RANGE K (Lo:Hi:Step):(   1:   1:   1)
(PID.TID 0000.0001) // =======================================================
(PID.TID 0000.0001) K =   1
(PID.TID 0000.0001) //                I=6       I=16      I=26      I=36      I=38      I=48      I=58      I=68      I=70      I=80      I=90      I=100     I=102     I=112     I=122     I=132     I=134     I=144     I=154     I=164     I=166     I=176     I=186     I=196     I=198     I=208     I=218     I=228     I=230     I=240     I=250     I=260     I=262     I=272     I=282     I=292     I=294     I=304     I=314     I=324     I=334
(PID.TID 0000.0001) // |--J--|321012345|789012345|789012345|789012345|701234567|901234567|901234567|901234567|903456789|123456789|123456789|123456789|123678901|345678901|345678901|345678901|345690123|567890123|567890123|567890123|567892345|789012345|789012345|789012345|789012567|901234567|901234567|901234567|901234589|123456789|123456789|123456789|123456781|345678901|345678901|345678901|345678901|567890123|567890123|567890123|567890123|
(PID.TID 0000.0001) //     32 ..............................+++++++++++++++++++++zzzyyyyxwwwwxxxxxxxxxwwwwwwwwwwwwwwwwwwwwwvvvvvvvvvvvvvvvvvvvvvvvvuuuuuuvvuuuuuuuuuuvvvvuuvuuuusqhdcccccccccccccccccccccccccdcccccccccccccdcccccccddddddddddddddddddddeeeeeefffeeeeeeeeeeeeeeeeddddeeeedddddddddccccccccccccccccddccccccccccccccccccbbbbabbaaaaa---aaaaaaaaa---aaaaaa--aaaaaaaaaaaa--------------aa--aaaaaaabbaaaaaabbaaaabbbaaabbbbbaabcdccbcbddcbbbbc
(PID.TID 0000.0001) //     31 ...............................++++++++++++++++++++zzzyyyyxxwwwxxxxxxxxxxwwwwwwwwwwwwwwwwwwwwvvvvvvvvvvvvvvvvvvvvvvvuuuuuuuvuuuuuuuuuuuuvvvvvvuuustngdcccdcddddccccddddccccdddddcccccccccccccdcdcccccdddddddddddddddddddddeeeeffffeeeeeeeeeeeeeeeeddddeeeeddddddddddcccccccccccccccddddccccccccccccccccbbbbaaaaaaaaa--aaaaaaaaaa--a--aaa--a--aaaaaaaaa--------------a--aaaaaaaabaaaaaaabaaaabbbbaaaabbbbbabccccbbcdcbbbbbb
(PID.TID 0000.0001) //     30 ...............................++++++++++++++++++++zzzyyyyxxwwwxxxxxxxxxxxwwwwwwwwwwwwwwwwwwwvvvvvvvvvvvvvvvvvvvvvuuuuuuuuuuuuuuuuuuvvuuuuuuvvuuutpgedccdddddddccccddddccccddcccccccccccccccdddddccccdddddddddddddddddddddeeeffffffeeeeeeeeeeeeeeeddddeeeeddddddddddcccccccdccccccddddcccccccccccccccccbbbbaaaaaaaaa--aaaaaaaaaaaaa--aaaaaa--aaaaaaaaaa--------a----aa--aaaaaaaaaaaaaaaaaaaabbbbaaaabbbbbbbbbccbcedbbbbbbc
(PID.TID 0000.0001) //     29 ...............................++++++++++++++++++++zzzyyyyxxwwwxxxxxxxxxxxxwwwwwwwxwwwwwwwwwwwvvvvvvvvvvvvvvvvvvvuuuuuuuvvuuuuuuvvuuvvvuuuuuuvuuutojecccccccddddccccddddcccccccccccccccccccddddddddddddddddddddddddddddddeeeeefffffeeeeeeeeeeeeeeeddddeeeedddddddddccccccccdddddccddddcccccccccccccccccbbbbaaaaaaaa-----aaaaaaaaaaaa----aaaa----aaaaaaaaaaaa---a--aaaa-aaaaaaaaaaaaaaaaaaaabbbbbbaaabbbbbbbbbbbbdebbbbbbbc
(PID.TID 0000.0001) //     28 ................................+++++++++++++++++++zzzyyyyxxwwxxxxxxxxxxxxxxwwwwwwxxwwwwwwwwwwvvvvvvvvvvvvvvvvvvuuuuuuuuuvuuuuuuuvuuvvvvuuuuuvuuttolfcccccccddddccccddddcccccccccccccccdcccddddcddddddddddddddddddddddddeeeeeefffffeeeeeeeeeeeeeedddddeeeddddddddddccccccccddddddddddccccccccccccccccccbbbbaaaaaa-----aa----aaaaaaaa-a--aaaa-a----aaaaaaaaa------aaa---aaaaaaaaaaaaaaaaaababbbbbbabbbbbbbbbbbbbbcdbbbbbbcc
(PID.TID 0000.0001) //     27 ................................+++++++++++++++++++zzzyyyyxxxxxxxxxxxxxxxxxxxwwwwwxxxwwwwwwwwwvvvvvvvvvvvvvvvvvuuuuuuuuuuvvuuuuuuvvvvvvvuuuuvvuustqnhdccccccdddddcccdddddcccccdddcccccdcccccddddddddddddddddddddddddddedeeeeeefffffeeeeeeeeeeeeeedddddeeeddddddddccccccccdddddddddccccccccccccbcccccccbbbbbaaaaa----aaaaa-----aaaaaaaaa-aaaaaaa---aaaaaaaa----------a--aaaaabaaaaaaabaaaababbbbbbbbbbbbbbbbbbbbbbcbbbbbccc
(PID.TID 0000.0001) //     26 .................................++++++++++++++++++zzzyyyyxxxxxxxxxxxxxxxxxxxxwwwwxxxxwwwwwwwwwvvvvvvvvvvvvvvvvuuuuuuuuuuvvuuuuuuvvvvvvvuuuuuvuututpjdcccccccdddddddcdddddddcdddddccdddccdddddcccdddddddddddddddddddddedeeeeefffffeeeeeeeeeeeeeeddddddeedddddddccccccccddddddddddddcccccccccccbcccccccbbbbbaaaaa---aaaaaaa-----aaaaaaaa-aaaaaaa----aaaaaaa--aaa--------aaaaaaaabbaaaaaabbaaabbbbbbbbbbbbbbbbbbabbcbbbbcccc
(PID.TID 0000.0001) //     25 .................................++++++++++++++++++zzzyyyyxxxxxxxxxxyyyxxxxxxxxwwwxxxxxwwwwwwwwvvvvvvvvvvvvvvvuuuuuttuuuuvvttuuuuvvvvvvvuuuuuuuuuutrkdcbcccccdddddddcddddddddddddddddddcdddddddccddddddddddddddddddddddddeeeefffffeeeeeeeeeeeddedddddddedddddddccccccccdddddddddddccccccccccccbcccccccbbbbaaaaaa---aaaaaaa-------aaa-aa--aaa-aa------a--aa--aaa--------aaaaaaaaaaaaaaaaaaaaabbbbbbbbbbbbabbbbbbbbbbbbbcccc
(PID.TID 0000.0001) //     24 .................................++++++++++++++++++zzzyyyyxxxxxxxxxyyyyyyyxxxxxxwwxxxxxxwwwwwwwwvvvvvvvvvvvvuuuuuuuttuuuuvvttuuuuvvvvvvvuuuuuuuutttrlecbbccccdddddddcddddddddddddddddddcdddddddddddddddddddddddddddddddddeeeffffffeeeeeeeeeeedeeddddddeeddddddcccccccdcddddcdddddcccccccccccccbcccccccbbbbbaaaaaa-aaaaaaaaa------aa---aa-aa---aa-----a-aa-------------aaaaaaaaaaaaaaaaaaaaabbbbbbbbbbbbbbbbbbabbbbbbbbcccc
(PID.TID 0000.0001) //     23 ..................................+++++++.+++++++++zzzyyyyxxxxxxxxxyyyyyyyyyxxxxxwyyxxxxxwwwwwwwvvvvvvvvvvvuuuuuuuutttuuuvvtttuuuvvvvvuuuuuuuuuutttpjecbccccccddddddccddddddddddddddddddddddddddddddddddddddddddddddddddeeeeffffffeeeeeeeeedeeeddddddceddddddccccccccdcddddccddcccccccccccccccbcccccccbbbbaaaaaaaaaaaaaaaaa-------a----a--a----a-aaa-aaaa---------aaaaaaaaaaaaabbaaaaaabbbbabbbbbaabbbbbbbbbcbbbbbbbbbcccc
(PID.TID 0000.0001) //     22 ..................................+++++++.+++++++++zzzyyyyxxxxxxxxxyyyyyyyyyyyxxxxyyyyxxxxxwwwwwwvvvvvvvvvuuuuuuuuutttuuuvvtttuuuvvvvuuuuuvuuuuttsrlhdccccccccddddddccddddddddddddddddddddddddddddddddddddeeedddddeeedddeeeeffffffeeeeeeeedeeeedddddddedddddddcccccccccccccdccccccccccccccccccbcccccccbbbbaaaaaaaaaaaaaaaaaa-----aaa-----aaa----aaaa-aaaa---------a--aaaaabaabbbaabaabbbaababbbaaaaabbbbaaabbbbbbbbbbbbccc
(PID.TID 0000.0001) //     21 ..................................+++++++.+++++++++zzzyyyyxxxxxxxxxyyyyyyyyyyyyyxxyyyyyyxxxxwwwwwvvvvvvvvvuuuuuuuuuttttuuuvttttuuuvvvvuuuuuuuuutsqmheddcccccccddddddccddddddddddddddddddddddddddddddddddddeeedddddeeeddeeeefffffffeeeeeeeedeeeddddcccdddddcccddcccccccccccccccccccccccccccccccbcccccccbbbbaaaaaaaaaaaaaaaaaa-----aaaaa---aaaaa---aaa--aaa------------aaaaaabbbbbaaabbbbbabaabbbbaaaabbbbaabcbbabbbbbbbbccc
(PID.TID 0000.0001) //     20 ...................................++++++..++++++++zzzyyyyxxxxxxxxxyyyyzyyyyyyyyyyyyyyyyyyxxxwwwwwvvvvvvvvuuuuuuuuuttttuuuvttttuuuvvvvvuuuuuuuttrqlfeedddcccccddddddccddddddddddddddddddddddddcdddddddddddeeddddddeedddeeeeffgffffeeeeeedeeeeeddddcccdddddcccdcccccccccccccccccccccccccccccccbbccccccbbbbbaaaaaaaaaaaaaaaaaa----aaaaaa--aaaaaa--------aa--aa--------aaaaaaaabaaaaaaabaaaaaaabbbbaaabbbbaaadcbbbbbbbbcbcccc
(PID.TID 0000.0001) //     19 ..................................+++++++.+++++++++zzzyyyyxwwxxxxxxyyyzzzyyyyyyyyyyyyyyyyyyyxxxwwwwvvvvvvvuuvuuuuuttttttuuutttttuuuuvvvuuuuuuuutttqkgeeedcccdcdddddddcddddddddddddddddddddddddcdddddddddddddddddddddddeeeeeffgffffeeeeeeeeeeedddcccdccddcccdccccccccccccccccccccccccccccccccbbbcccccbbbbbbaaaaaaaaaaaaaaaaaa---aaaaaaa--aaaaaa--aa-----a-aaaa--aaaa--aaaaaaaaaaaaaaaaaaaabaabbbbaaabbbbaaabaabbbbbbbcccccc
(PID.TID 0000.0001) //     18 ..................................+++++++.+++++++++zzzyyyyxxwxxxxxxyyyzzzzzzzzzyyyzzzzzyyyyyyxxxxwwwvvvvvvvvvvuuttttttttuuutttttuuuvvvvvuutttuuttusphfeddccdcccdddddcccddddddddddddddddddddddddddddddddddddddddddddddeeeeeeffffffeeeeeeeeeeeddddccccccddcccccccccccccccccccccccccccccccccccbbbbccccbbbbbbbbaaaaaaaaaaaaaaaa----aaaaaaa-aaaaaaa-aaa--------aaaaaaaa---aaaaaaaaaaaaaaaaaaaabbbaabaaabbabbbbaaaabbbbbbbbccccc
(PID.TID 0000.0001) //     17 ...................................++++++..++++++++zzzyyyyxwwxxxxxxyyzzzzzzzzzzzzzzzzzzzzzyyyyyxxxxwwvvvvvvvvvvuuuuuttttuuuuttttuuuuuvvvvuuuuuuttutqjgeddccccccdddddcccdddddddddddddddddddddddddedddddddddeeddddddeedeeeeefffffffeeeeeeeeeeedddddcdcccdddcdcccccccccccccccccccccccccccccbccbbbbcbccbbbbbbbbbaaaaaaaaaaaaaaa---aaaaaaaa--aaaaaa----------a-a----aa---aaaaaababbbbbababbbbbbbaaaaaaabaaabbbaaabbbbbbbbbccccc
(PID.TID 0000.0001) //     16 ...................................++++++..++++++++zzzyyyxxwwwxxxxxyyz+++++++++++z+++++++zzzzyyyyxxxwwwvvvvvvvvvuuuuuttuuuuuuttuuuuuvuvvvuuuuuuttttqmifddcccccccddddccccdddddddddddddddddddddddeeeddddddddeeedddddeeeeeeefffffffeeeeeeeeeeeeddddddddccddddddccccccccccccccccccccccccccccbbbbbbbcbbbbbbbbbbbaaaaaaaaaaaaaaaa--aaaaaaaa---aaaaa---aa--a--------------aaaaaaabbabbbbabbabbbbbaaabaaaaaaaaabccaabbbbbbbbbbbccc
(PID.TID 0000.0001) //     15 ....................................+++++...+++++++zzzyyyxxxxxxxxxxyyz++++++++++++++++++++++zzzyyyyxxwwwwvwvvvvvvvuuuuuuuuuuuuuuuuuuuuuuuuuuuuuttttspkgedcccccccddddccccdddddddddddddddddddddddeeeeeddededeeedededeeeeeeeffffffeeeeeeeedeeeeddddddddccddddddccccccccccccccccccccccccccccbbbbbbbcbbbbbbbbbbbaaaaaaaaaaaaaaaa--aaaaaaa----aaaa------a------aa-------aaaaaaabaaaaaabbaaaaaabbbaaaaaaaaaaabbbcbbbbbbbbcbbbbbcc
(PID.TID 0000.0001) //     14 ....................................+++++...+++++++zzzyyyxxxwxxxxxxyyz+++++++++++++++++++++++++zzzyyxxxxwwwwvvvvvvvuuuuuuuuuuuuuuuuuuuuuuuuuuuttstssrlgedddcccccddddccccddddddddddddddddddddddeeeeeeeeeeeeeeeeeeeeeeeeeefffffffeeeeeeddddededdddddddccddddddccccccccccccccccccccccccccccbbbbbbbcbbbbbbbbbbbaaaaaaaaaaaaaaa----aaaaa-----aaa-------aa------aa------aaaaaaaabaaaaababaaaaabbbaaaaaaaaaaabbbbbbbbbbbbcbbbbbbc
(PID.TID 0000.0001) //     13 .....................................++++....++++++zzzyyyxxwwwxxxxxyyz+++++++++++++++++++++++++++zzzyyxxxxwwwwvvvvvuuuuuuuuuuuuuuuuuuuuuuuuutttssssspieddddccccccdddcccccdddddddddddddddddddddeeeeeeddeeeeeeedeeeeeeeeefffffffffeeeedddddeedddddddddccddddddcccccccccccccccccccccccccccbbbbbbbbbbbbbbbbbbbbaaaaaaaaaaaaaaa----aaa-------a----------a------------a--aaaaaaaaaaaabbaaaaaabbbaaaaaaaaaabaabbbbbbbbbbbcbbbbbbb
(PID.TID 0000.0001) //     12 .....................................++++....++++++zzzyyyyxwwwxxxxxyyz++++++++++++++++++++++++++..+zzzyyxxxxwwvvvvvvuuutttuvuuutttuuuuuuuuttsttssssqmfeedddcccccccddccccccdddddddddddddddedddeeeeeeeddeeeeeeedeeeeeeeeefgfffffffeeeeddddddedddddddddccddddddcccccccccccccccccccccccccccbbcbbbbbbbcbbbbbbbbbaaaaaaaaaaaaaaaa---aa-------------------a------------aaaaa-aaaaaaaabbbaaaaabbbaaaaaaaaabbaaaaabbbbbbbbbbbbbbbbb
(PID.TID 0000.0001) //     11 ......................................+++.....+++++zzzyyyyxxxwxxxxxyyz++++++++++++++++++++++++++...++zzyyyyxxwwvvvvvuuuttttvuuuttttuuuutttttsssrssrngeeeddccccccccddccccccdddddddddedddddedddeeeeeeedeeeeeeeeeeeeeeeeeffgfffffffeeeddddddeedddddddddccddddddcccccccccccccccccccccccccbbbbcbbbbbbbcbbbbbbbbaaaaaaaaaaaaaaaaaa--aa----------------------------aaa---aa--aaaaaaaaabbaaaaaabbbaaaaaaaabbabaaabbbbbbbbbbbbbccbb
(PID.TID 0000.0001) //     10 ......................................+++.....+++++zzzyyyyxwwwwxxxxxyzz+++++++++++++++++++++++++....+++zzyyyyxwwwvvvvuutsssvvuutssstttttsrssssrrssqifeeedccccccdddddcccddddddddddddeeddddddddeeeeeeeeeeeeeeeeeeeeeeeeeffgfffffffeeeeddddeeeeddddddddccddddddcccccccccccccccccccccccccbbbbbbbbbbbbbbbbbbbbbaaaaaaaaaaaaaaaaaaaaaaa-------a------------------a------aa--aaaaaaaaabbaaaaaabbaaaaaaaaabaabaabbbbbbbbbbbbbbcbbb
(PID.TID 0000.0001) //      9 .......................................++......++++zzzyyyyxxwwwxxxxxyzz++++++++++++++++++++++++++.....+++zzzyyyxwwwvvvuusrrvvvuusrrrsssrqqrrrrsssrjffeddccccccddddddccdddddddddddddeeeeddddddeeeeeeeeeeeeeeeeeeeeeeeeefgggffffffeeeeeeeeeeeedddddddddcdddddddccccccccccbcccccccccccccbbbbbbbbbbbbbbbbbbbbaaaaaaaaaaaaaaaaaaaaaaa----------------------aaaa-------aa-aaaaaabaaaaababaaaaabbaaaaaaaaaaabbbbbbbbbbbbbbbbbcbbb
(PID.TID 0000.0001) //      8 .......................................++......++++zzzyyyyxxwwwxxxxxyzz+++++++++++++++++++++++++........+++zzzzyyxxwvvvutsrwvvvutsrrrrrrqrrqpqrqpnigfeddccccdddddddddddddddddddddddeeeeddeeeeeeeeeddeeeeeeeeeeeeeeeeeefgggffffeeeeeeeeeeeeedddddddddccddddddccccccccccbbcccccccccccccbbbbbbbbbbbbbbbbbbbaaaaaaaaaaaaaaaaaaaaaaaaa-------a-------aaaaaa-a---------a--aaaaaabaaabbbabaaabbbbaaaaaaaaaaabbbbbbbbbbbbbbbbbbbbb
(PID.TID 0000.0001) //      7 .......................................++......++++zzzyyyyxxwwwxxxxxyzz+++++++++++++++++++++++++..........++++zzzyyxwvvuuttxwvvuuttssrrssssqponoprhgfeddcccddddddddddddddddddddddddeeeeeeeeeeeeeeeddeeeeeeeeeeeeeeeeeffgggffffffeeeeeeeeeeeedddddddddcdddddddcccccccccbbcccccccccccccbbbbbbbbbbbbbbbbbbbaaaaaaaaaaaaaaaaaaaaaaaaaa--aaaaaa--aaaaa---------------aa---aaaaabbaabbbabbaabbbaaaaaaaaaaaaabbbbbbbbbbbbbbbbbbbb
(PID.TID 0000.0001) //      6 ........................................+.......+++zzzyyyyxxwwwxxxxxyzz++++++++++++++++++++++++...............+++zzyxxwvtuuyxxwvtuuuutstuttrpmjjkkgfedccccddedddddddedddddddddddddddeeeeeeeeeeeeeedddeeeeeeffeeeeeefffffffffffffeeeeeeeeeeeedddddddddcdddddddccccccccbbccccccccccccccbbbbbbbbbbbbbbbbbbbbaaaaaaaaaaaaaaaaaaaaaaaaaaa----aaaa---------a----------a-a--aaaaabaaaaaaabaaaaaaaaaaaaaaaaaaabbbbbbbbbbbccbbbaaab
(PID.TID 0000.0001) //      5 ........................................+.......+++zzzyyyxxxwwwxxxxxxyzzz+++++++++++++++++++++...................++zzyxwuuvzzyxwuuvuuttuuvvurojhgfeddcccccdddddddddddddddddddddddddddeeeeeeeeeeeeeeeeeeeeefffeeeeefffffffffffffffeeeeeeeeeeeddddddddccddddddcccccccccbbcccbbbbccccbbbbbbbbbbbbbbbbbbbbbbbbbaaaaaaaaaaaaaaaaaaaaaaaaa----aaaa------------aa------a-a-aaaaabaaaaaaabaaaaaaaaaaa-aaabaaaabbbbbbbbbbbcbbbaaaab
(PID.TID 0000.0001) //      4 ........................................+.......+++zzzyyyxxxwwwxxxxxxyzzzz++++++++++++++++++........................+zyxwvv.+zyxwvvuuuuuvvvutsonlhgeccccccdddddddddddddddddddddddddddeeeeeeeeeeeeeeeeeeeeefffeeeeeffffffffffffffffeeeeeeeeeddddddddddcdddddddccccccccbccccbbbbbcccbbbbbbbbbbbbbbbbbbbbbbbbaaaaaaaaaaaaaaaaaaaaa--aaa-----aaa-------------aa----a---aaaaaaaaaaaaaaaaaaaaaaaaaaaaabbaaaabbbbaabbbbbbbbbaaaaa
(PID.TID 0000.0001) //      3 ........................................+.......+++zzzyyyxxxwwwxxxxxxyyzzz+++++++++++++++++..........................+zyxwu..+zyxwuuuuuuvvvvuusstpnhddccccddddddddddddddddddddddeedddeeeeeeeeeeeeeeeeeeedefffeeedeffffefffffffffffeeeeeeeeeddddddddddcdddddddcccccccccccccbbbbbbccbbbbbbbbbbbbbbbbbbbbbbbbaaaaaaaaaaaaaaaaaaaa---aa------aa---------------aa-------aaaaaaaaaaaaaaaaaaaaaaaaaaaaabbaaaabbbbaaabbbbbbbaaaaaa
(PID.TID 0000.0001) //      2 ........................................+.......+++zzzyyyxxxxwwxxxxxxyyzzz++++++++++++++++............................+zyxw...+zyxwvvvvvvvvvuuttttrkeddccddddddddddddddddddddeeeeeddeeeeeeeeeeeeeeeeeeeeeeeffeeeeeeffeffffffffffffeeeeeeeeeddddddddddcdddddddccccccccccccbbbbcbbbbcbbbbbbbbbbbbbbbbbbbbbaaaaaaaaaaaaaaaa----a----a-------a-----------------a------aaaaaaaaaaaaaaaaaaaaaaaaaaaaabbaaaaabbbbbbbbbbbbbaaaaaaa
(PID.TID 0000.0001) //      1 ..........................................................................................................................................................................................................................................................................................................................................................................................................................
(PID.TID 0000.0001) //      0 ..........................................................................................................................................................................................................................................................................................................................................................................................................................
(PID.TID 0000.0001) //     -1 .................................................................................................................................................................................................................................................................................................................................................+++++++zzzzzzzzzzzzzzzzzzzzzzzzzzzzzzzzzzzz++zzz+zzzzzzzzzzzzzzzzzzzzzzzz
(PID.TID 0000.0001) //     -2 ................................................................................................................................................................................................................................................................................................................................................+++++++zzzzzzzzzzzzzzzzzzzzzzzzzzzzzzzzzzzzzzz+++zzzzzzzzzzzzzzzzzzzzzzzzz
(PID.TID 0000.0001) //     -3 ................................................................................................................................................................................................................................................................................................................................................+++++++zzzzzzzzzzzzzzzzzzzzzzzzzzzzzzzzzzzzzzz+++zzzzzzzzzzzzzzzzzzzzzzzzz
(PID.TID 0000.0001) // =======================================================
(PID.TID 0000.0001) // END OF FIELD                                          =
(PID.TID 0000.0001) // =======================================================
(PID.TID 0000.0001) 
(PID.TID 0000.0001) // =======================================================
(PID.TID 0000.0001) // Field Model Ro_surf (ini_masks_etc)
(PID.TID 0000.0001) // CMIN =          1.000000000000000E+32
(PID.TID 0000.0001) // CMAX =         -1.000000000000000E+32
(PID.TID 0000.0001) // CINT =          0.000000000000000E+00
(PID.TID 0000.0001) // SYMBOLS (CMIN->CMAX): -abcdefghijklmnopqrstuvwxyz+
(PID.TID 0000.0001) //                  0.0: .
(PID.TID 0000.0001) // RANGE I (Lo:Hi:Step):(    -3:   334:     1)
(PID.TID 0000.0001) // RANGE J (Lo:Hi:Step):(    32:    -3:    -1)
(PID.TID 0000.0001) // RANGE K (Lo:Hi:Step):(   1:   1:   1)
(PID.TID 0000.0001) // =======================================================
(PID.TID 0000.0001) // =======================================================
(PID.TID 0000.0001) // END OF FIELD                                          =
(PID.TID 0000.0001) // =======================================================
(PID.TID 0000.0001) 
(PID.TID 0000.0001) // =======================================================
(PID.TID 0000.0001) // Field hFacC at iteration          0
(PID.TID 0000.0001) // CMIN =          1.000000000000000E+00
(PID.TID 0000.0001) // CMAX =          1.000000000000000E+00
(PID.TID 0000.0001) // CINT =          0.000000000000000E+00
(PID.TID 0000.0001) // SYMBOLS (CMIN->CMAX): -abcdefghijklmnopqrstuvwxyz+
(PID.TID 0000.0001) //                  0.0: .
(PID.TID 0000.0001) // RANGE I (Lo:Hi:Step):(    -3:   334:     1)
(PID.TID 0000.0001) // RANGE J (Lo:Hi:Step):(    32:    -3:    -1)
(PID.TID 0000.0001) // RANGE K (Lo:Hi:Step):(   1:   1:   1)
(PID.TID 0000.0001) // =======================================================
(PID.TID 0000.0001) // =======================================================
(PID.TID 0000.0001) // END OF FIELD                                          =
(PID.TID 0000.0001) // =======================================================
(PID.TID 0000.0001) 
(PID.TID 0000.0001) // =======================================================
(PID.TID 0000.0001) // Field hFacW at iteration          0
(PID.TID 0000.0001) // CMIN =          1.000000000000000E+00
(PID.TID 0000.0001) // CMAX =          1.000000000000000E+00
(PID.TID 0000.0001) // CINT =          0.000000000000000E+00
(PID.TID 0000.0001) // SYMBOLS (CMIN->CMAX): -abcdefghijklmnopqrstuvwxyz+
(PID.TID 0000.0001) //                  0.0: .
(PID.TID 0000.0001) // RANGE I (Lo:Hi:Step):(    -3:   334:     1)
(PID.TID 0000.0001) // RANGE J (Lo:Hi:Step):(    32:    -3:    -1)
(PID.TID 0000.0001) // RANGE K (Lo:Hi:Step):(   1:   1:   1)
(PID.TID 0000.0001) // =======================================================
(PID.TID 0000.0001) // =======================================================
(PID.TID 0000.0001) // END OF FIELD                                          =
(PID.TID 0000.0001) // =======================================================
(PID.TID 0000.0001) 
(PID.TID 0000.0001) // =======================================================
(PID.TID 0000.0001) // Field hFacS at iteration          0
(PID.TID 0000.0001) // CMIN =          1.000000000000000E+00
(PID.TID 0000.0001) // CMAX =          1.000000000000000E+00
(PID.TID 0000.0001) // CINT =          0.000000000000000E+00
(PID.TID 0000.0001) // SYMBOLS (CMIN->CMAX): -abcdefghijklmnopqrstuvwxyz+
(PID.TID 0000.0001) //                  0.0: .
(PID.TID 0000.0001) // RANGE I (Lo:Hi:Step):(    -3:   334:     1)
[...]
(PID.TID 0000.0001) %MON obc_N_theta_max              =   1.6389539512358E+01
(PID.TID 0000.0001) %MON obc_N_theta_min              =   1.8895914629663E+00
(PID.TID 0000.0001) %MON obc_N_theta_mean             =   5.1588697396382E+00
(PID.TID 0000.0001) %MON obc_N_theta_sd               =   3.4825945703428E+00
(PID.TID 0000.0001) %MON obc_S_theta_max              =   2.5543400077115E+01
(PID.TID 0000.0001) %MON obc_S_theta_min              =   1.4633015851955E+00
(PID.TID 0000.0001) %MON obc_S_theta_mean             =   5.4595457048427E+00
(PID.TID 0000.0001) %MON obc_S_theta_sd               =   5.3558789690521E+00
(PID.TID 0000.0001) %MON obc_N_salt_max               =   3.5910861522510E+01
(PID.TID 0000.0001) %MON obc_N_salt_min               =   3.3295096609545E+01
(PID.TID 0000.0001) %MON obc_N_salt_mean              =   3.5114559876550E+01
(PID.TID 0000.0001) %MON obc_N_salt_sd                =   3.0984754111561E-01
(PID.TID 0000.0001) %MON obc_S_salt_max               =   3.7318243364860E+01
(PID.TID 0000.0001) %MON obc_S_salt_min               =   3.4844695097122E+01
(PID.TID 0000.0001) %MON obc_S_salt_mean              =   3.5168371860085E+01
(PID.TID 0000.0001) %MON obc_S_salt_sd                =   4.5716584207385E-01
(PID.TID 0000.0001) // =======================================================
(PID.TID 0000.0001) // End OBCS MONITOR field statistics
(PID.TID 0000.0001) // =======================================================
 Computing Diagnostic #     23  ETAN         Counter:      15   Parms: SM      M1      
 Computing Diagnostic #     80  oceTAUX      Counter:      15   Parms: UU      U1      
           Vector  Mate for  oceTAUX      Diagnostic #     81  oceTAUY  exists 
 Computing Diagnostic #     81  oceTAUY      Counter:      15   Parms: VV      U1      
           Vector  Mate for  oceTAUY      Diagnostic #     80  oceTAUX  exists 
 Computing Diagnostic #    185  EXFuwind     Counter:      15   Parms: UM      U1      
 Computing Diagnostic #    186  EXFvwind     Counter:      15   Parms: VM      U1      
 Computing Diagnostic #     26  THETA        Counter:      15   Parms: SMR     MR      
 Computing Diagnostic #     27  SALT         Counter:      15   Parms: SMR     MR      
 Computing Diagnostic #     30  UVEL         Counter:      15   Parms: UUR     MR      
           Vector  Mate for  UVEL         Diagnostic #     31  VVEL     exists 
 Computing Diagnostic #     31  VVEL         Counter:      15   Parms: VVR     MR      
           Vector  Mate for  VVEL         Diagnostic #     30  UVEL     exists 
 Computing Diagnostic #     32  WVEL         Counter:      15   Parms: WM      LR      
 Computing Diagnostic #     36  UVELSQ       Counter:      15   Parms: UURP    MR      
           Vector  Mate for  UVELSQ       Diagnostic #     37  VVELSQ   exists 
 Computing Diagnostic #     37  VVELSQ       Counter:      15   Parms: VVRP    MR      
           Vector  Mate for  VVELSQ       Diagnostic #     36  UVELSQ   exists 
 Computing Diagnostic #     52  WTHMASS      Counter:      15   Parms: WM      LR      
 Computing Diagnostic #     55  WSLTMASS     Counter:      15   Parms: WM      LR      
(PID.TID 0000.0001) %CHECKPOINT        15 ckptA
(PID.TID 0000.0001)   Seconds in section "ALL                    [THE_MODEL_MAIN]":
(PID.TID 0000.0001)           User time:   58.9904906749725
(PID.TID 0000.0001)         System time:  0.000000000000000E+000
(PID.TID 0000.0001)     Wall clock time:   77.7565240859985
(PID.TID 0000.0001)          No. starts:           1
(PID.TID 0000.0001)           No. stops:           1
(PID.TID 0000.0001)   Seconds in section "INITIALISE_FIXED       [THE_MODEL_MAIN]":
(PID.TID 0000.0001)           User time:   27.6534531116486
(PID.TID 0000.0001)         System time:  0.000000000000000E+000
(PID.TID 0000.0001)     Wall clock time:   38.1604959964752
(PID.TID 0000.0001)          No. starts:           1
(PID.TID 0000.0001)           No. stops:           1
(PID.TID 0000.0001)   Seconds in section "THE_MAIN_LOOP          [THE_MODEL_MAIN]":
(PID.TID 0000.0001)           User time:   31.3370113372803
(PID.TID 0000.0001)         System time:  0.000000000000000E+000
(PID.TID 0000.0001)     Wall clock time:   39.5960030555725
(PID.TID 0000.0001)          No. starts:           1
(PID.TID 0000.0001)           No. stops:           1
(PID.TID 0000.0001)   Seconds in section "INITIALISE_VARIA    [THE_MAIN_LOOP]":
(PID.TID 0000.0001)           User time:   2.76035499572754
(PID.TID 0000.0001)         System time:  0.000000000000000E+000
(PID.TID 0000.0001)     Wall clock time:   5.12616300582886
(PID.TID 0000.0001)          No. starts:           1
(PID.TID 0000.0001)           No. stops:           1
(PID.TID 0000.0001)   Seconds in section "MAIN LOOP           [THE_MAIN_LOOP]":
(PID.TID 0000.0001)           User time:   28.5766353607178
(PID.TID 0000.0001)         System time:  0.000000000000000E+000
(PID.TID 0000.0001)     Wall clock time:   34.4698190689087
(PID.TID 0000.0001)          No. starts:           1
(PID.TID 0000.0001)           No. stops:           1
(PID.TID 0000.0001)   Seconds in section "MAIN_DO_LOOP        [THE_MAIN_LOOP]":
(PID.TID 0000.0001)           User time:   28.5765419006348
(PID.TID 0000.0001)         System time:  0.000000000000000E+000
(PID.TID 0000.0001)     Wall clock time:   34.4697179794312
(PID.TID 0000.0001)          No. starts:          15
(PID.TID 0000.0001)           No. stops:          15
(PID.TID 0000.0001)   Seconds in section "FORWARD_STEP        [MAIN_DO_LOOP]":
(PID.TID 0000.0001)           User time:   28.5763549804688
(PID.TID 0000.0001)         System time:  0.000000000000000E+000
(PID.TID 0000.0001)     Wall clock time:   34.4695384502411
(PID.TID 0000.0001)          No. starts:          15
(PID.TID 0000.0001)           No. stops:          15
(PID.TID 0000.0001)   Seconds in section "DO_STATEVARS_DIAGS  [FORWARD_STEP]":
(PID.TID 0000.0001)           User time:  0.813039779663086
(PID.TID 0000.0001)         System time:  0.000000000000000E+000
(PID.TID 0000.0001)     Wall clock time:  0.821817636489868
(PID.TID 0000.0001)          No. starts:          45
(PID.TID 0000.0001)           No. stops:          45
(PID.TID 0000.0001)   Seconds in section "LOAD_FIELDS_DRIVER  [FORWARD_STEP]":
(PID.TID 0000.0001)           User time:  0.259273529052734
(PID.TID 0000.0001)         System time:  0.000000000000000E+000
(PID.TID 0000.0001)     Wall clock time:  0.846093416213989
(PID.TID 0000.0001)          No. starts:          15
(PID.TID 0000.0001)           No. stops:          15
(PID.TID 0000.0001)   Seconds in section "EXF_GETFORCING     [LOAD_FLDS_DRIVER]":
(PID.TID 0000.0001)           User time:  0.258846282958984
(PID.TID 0000.0001)         System time:  0.000000000000000E+000
(PID.TID 0000.0001)     Wall clock time:  0.845676898956299
(PID.TID 0000.0001)          No. starts:          15
(PID.TID 0000.0001)           No. stops:          15
(PID.TID 0000.0001)   Seconds in section "EXTERNAL_FLDS_LOAD [LOAD_FLDS_DRIVER]":
(PID.TID 0000.0001)           User time:  1.144409179687500E-004
(PID.TID 0000.0001)         System time:  0.000000000000000E+000
(PID.TID 0000.0001)     Wall clock time:  1.227855682373047E-004
(PID.TID 0000.0001)          No. starts:          15
(PID.TID 0000.0001)           No. stops:          15
(PID.TID 0000.0001)   Seconds in section "DO_ATMOSPHERIC_PHYS [FORWARD_STEP]":
(PID.TID 0000.0001)           User time:  9.727478027343750E-005
(PID.TID 0000.0001)         System time:  0.000000000000000E+000
(PID.TID 0000.0001)     Wall clock time:  1.027584075927734E-004
(PID.TID 0000.0001)          No. starts:          15
(PID.TID 0000.0001)           No. stops:          15
(PID.TID 0000.0001)   Seconds in section "DO_OCEANIC_PHYS     [FORWARD_STEP]":
(PID.TID 0000.0001)           User time:   4.30517387390137
(PID.TID 0000.0001)         System time:  0.000000000000000E+000
(PID.TID 0000.0001)     Wall clock time:   4.35332536697388
(PID.TID 0000.0001)          No. starts:          15
(PID.TID 0000.0001)           No. stops:          15
(PID.TID 0000.0001)   Seconds in section "KPP_CALC [DO_OCEANIC_PHYS]":
(PID.TID 0000.0001)           User time:   3.65160751342773
(PID.TID 0000.0001)         System time:  0.000000000000000E+000
(PID.TID 0000.0001)     Wall clock time:   3.67515611648560
(PID.TID 0000.0001)          No. starts:         150
(PID.TID 0000.0001)           No. stops:         150
(PID.TID 0000.0001)   Seconds in section "DYNAMICS            [FORWARD_STEP]":
(PID.TID 0000.0001)           User time:   4.50955963134766
(PID.TID 0000.0001)         System time:  0.000000000000000E+000
(PID.TID 0000.0001)     Wall clock time:   4.55766487121582
(PID.TID 0000.0001)          No. starts:          15
(PID.TID 0000.0001)           No. stops:          15
(PID.TID 0000.0001)   Seconds in section "UPDATE_SURF_DR      [FORWARD_STEP]":
(PID.TID 0000.0001)           User time:  0.103816986083984
(PID.TID 0000.0001)         System time:  0.000000000000000E+000
(PID.TID 0000.0001)     Wall clock time:  0.104140758514404
(PID.TID 0000.0001)          No. starts:          15
(PID.TID 0000.0001)           No. stops:          15
(PID.TID 0000.0001)   Seconds in section "SOLVE_FOR_PRESSURE  [FORWARD_STEP]":
(PID.TID 0000.0001)           User time:   1.58360671997070
(PID.TID 0000.0001)         System time:  0.000000000000000E+000
(PID.TID 0000.0001)     Wall clock time:   1.60653972625732
(PID.TID 0000.0001)          No. starts:          15
(PID.TID 0000.0001)           No. stops:          15
(PID.TID 0000.0001)   Seconds in section "MOM_CORRECTION_STEP [FORWARD_STEP]":
(PID.TID 0000.0001)           User time:  0.251770019531250
(PID.TID 0000.0001)         System time:  0.000000000000000E+000
(PID.TID 0000.0001)     Wall clock time:  0.252709865570068
(PID.TID 0000.0001)          No. starts:          15
(PID.TID 0000.0001)           No. stops:          15
(PID.TID 0000.0001)   Seconds in section "INTEGR_CONTINUITY   [FORWARD_STEP]":
(PID.TID 0000.0001)           User time:  0.272994995117188
(PID.TID 0000.0001)         System time:  0.000000000000000E+000
(PID.TID 0000.0001)     Wall clock time:  0.274813890457153
(PID.TID 0000.0001)          No. starts:          15
(PID.TID 0000.0001)           No. stops:          15
(PID.TID 0000.0001)   Seconds in section "BLOCKING_EXCHANGES  [FORWARD_STEP]":
(PID.TID 0000.0001)           User time:   1.47252655029297
(PID.TID 0000.0001)         System time:  0.000000000000000E+000
(PID.TID 0000.0001)     Wall clock time:   1.55713009834290
(PID.TID 0000.0001)          No. starts:          30
(PID.TID 0000.0001)           No. stops:          30
(PID.TID 0000.0001)   Seconds in section "THERMODYNAMICS      [FORWARD_STEP]":
(PID.TID 0000.0001)           User time:   5.69660186767578
(PID.TID 0000.0001)         System time:  0.000000000000000E+000
(PID.TID 0000.0001)     Wall clock time:   5.74643540382385
(PID.TID 0000.0001)          No. starts:          15
(PID.TID 0000.0001)           No. stops:          15
(PID.TID 0000.0001)   Seconds in section "TRC_CORRECTION_STEP [FORWARD_STEP]":
(PID.TID 0000.0001)           User time:  7.629394531250000E-005
(PID.TID 0000.0001)         System time:  0.000000000000000E+000
(PID.TID 0000.0001)     Wall clock time:  9.059906005859375E-005
(PID.TID 0000.0001)          No. starts:          15
(PID.TID 0000.0001)           No. stops:          15
(PID.TID 0000.0001)   Seconds in section "MONITOR             [FORWARD_STEP]":
(PID.TID 0000.0001)           User time:   1.32250213623047
(PID.TID 0000.0001)         System time:  0.000000000000000E+000
(PID.TID 0000.0001)     Wall clock time:   1.33938503265381
(PID.TID 0000.0001)          No. starts:          15
(PID.TID 0000.0001)           No. stops:          15
(PID.TID 0000.0001)   Seconds in section "DO_THE_MODEL_IO     [FORWARD_STEP]":
(PID.TID 0000.0001)           User time:   4.07025909423828
(PID.TID 0000.0001)         System time:  0.000000000000000E+000
(PID.TID 0000.0001)     Wall clock time:   6.49067091941833
(PID.TID 0000.0001)          No. starts:          15
(PID.TID 0000.0001)           No. stops:          15
(PID.TID 0000.0001)   Seconds in section "DO_WRITE_PICKUP     [FORWARD_STEP]":
(PID.TID 0000.0001)           User time:   3.91250991821289
(PID.TID 0000.0001)         System time:  0.000000000000000E+000
(PID.TID 0000.0001)     Wall clock time:   6.51001787185669
(PID.TID 0000.0001)          No. starts:          15
(PID.TID 0000.0001)           No. stops:          15
(PID.TID 0000.0001) // ======================================================
(PID.TID 0000.0001) // Tile <-> Tile communication statistics
(PID.TID 0000.0001) // ======================================================
(PID.TID 0000.0001) // o Tile number: 000001
(PID.TID 0000.0001) //         No. X exchanges =              0
(PID.TID 0000.0001) //            Max. X spins =              0
(PID.TID 0000.0001) //            Min. X spins =     1000000000
(PID.TID 0000.0001) //          Total. X spins =              0
(PID.TID 0000.0001) //            Avg. X spins =       0.00E+00
(PID.TID 0000.0001) //         No. Y exchanges =              0
(PID.TID 0000.0001) //            Max. Y spins =              0
(PID.TID 0000.0001) //            Min. Y spins =     1000000000
(PID.TID 0000.0001) //          Total. Y spins =              0
(PID.TID 0000.0001) //            Avg. Y spins =       0.00E+00
(PID.TID 0000.0001) // o Tile number: 000002
(PID.TID 0000.0001) //         No. X exchanges =              0
(PID.TID 0000.0001) //            Max. X spins =              0
(PID.TID 0000.0001) //            Min. X spins =     1000000000
(PID.TID 0000.0001) //          Total. X spins =              0
(PID.TID 0000.0001) //            Avg. X spins =       0.00E+00
(PID.TID 0000.0001) //         No. Y exchanges =              0
(PID.TID 0000.0001) //            Max. Y spins =              0
(PID.TID 0000.0001) //            Min. Y spins =     1000000000
(PID.TID 0000.0001) //          Total. Y spins =              0
(PID.TID 0000.0001) //            Avg. Y spins =       0.00E+00
(PID.TID 0000.0001) // o Tile number: 000003
(PID.TID 0000.0001) //         No. X exchanges =              0
(PID.TID 0000.0001) //            Max. X spins =              0
(PID.TID 0000.0001) //            Min. X spins =     1000000000
(PID.TID 0000.0001) //          Total. X spins =              0
(PID.TID 0000.0001) //            Avg. X spins =       0.00E+00
(PID.TID 0000.0001) //         No. Y exchanges =              0
(PID.TID 0000.0001) //            Max. Y spins =              0
(PID.TID 0000.0001) //            Min. Y spins =     1000000000
(PID.TID 0000.0001) //          Total. Y spins =              0
(PID.TID 0000.0001) //            Avg. Y spins =       0.00E+00
(PID.TID 0000.0001) // o Tile number: 000004
(PID.TID 0000.0001) //         No. X exchanges =              0
(PID.TID 0000.0001) //            Max. X spins =              0
(PID.TID 0000.0001) //            Min. X spins =     1000000000
(PID.TID 0000.0001) //          Total. X spins =              0
(PID.TID 0000.0001) //            Avg. X spins =       0.00E+00
(PID.TID 0000.0001) //         No. Y exchanges =              0
(PID.TID 0000.0001) //            Max. Y spins =              0
(PID.TID 0000.0001) //            Min. Y spins =     1000000000
(PID.TID 0000.0001) //          Total. Y spins =              0
(PID.TID 0000.0001) //            Avg. Y spins =       0.00E+00
(PID.TID 0000.0001) // o Tile number: 000005
(PID.TID 0000.0001) //         No. X exchanges =              0
(PID.TID 0000.0001) //            Max. X spins =              0
(PID.TID 0000.0001) //            Min. X spins =     1000000000
(PID.TID 0000.0001) //          Total. X spins =              0
(PID.TID 0000.0001) //            Avg. X spins =       0.00E+00
(PID.TID 0000.0001) //         No. Y exchanges =              0
(PID.TID 0000.0001) //            Max. Y spins =              0
(PID.TID 0000.0001) //            Min. Y spins =     1000000000
(PID.TID 0000.0001) //          Total. Y spins =              0
(PID.TID 0000.0001) //            Avg. Y spins =       0.00E+00
(PID.TID 0000.0001) // o Tile number: 000006
(PID.TID 0000.0001) //         No. X exchanges =              0
(PID.TID 0000.0001) //            Max. X spins =              0
(PID.TID 0000.0001) //            Min. X spins =     1000000000
(PID.TID 0000.0001) //          Total. X spins =              0
(PID.TID 0000.0001) //            Avg. X spins =       0.00E+00
(PID.TID 0000.0001) //         No. Y exchanges =              0
(PID.TID 0000.0001) //            Max. Y spins =              0
(PID.TID 0000.0001) //            Min. Y spins =     1000000000
(PID.TID 0000.0001) //          Total. Y spins =              0
(PID.TID 0000.0001) //            Avg. Y spins =       0.00E+00
(PID.TID 0000.0001) // o Tile number: 000007
(PID.TID 0000.0001) //         No. X exchanges =              0
(PID.TID 0000.0001) //            Max. X spins =              0
(PID.TID 0000.0001) //            Min. X spins =     1000000000
(PID.TID 0000.0001) //          Total. X spins =              0
(PID.TID 0000.0001) //            Avg. X spins =       0.00E+00
(PID.TID 0000.0001) //         No. Y exchanges =              0
(PID.TID 0000.0001) //            Max. Y spins =              0
(PID.TID 0000.0001) //            Min. Y spins =     1000000000
(PID.TID 0000.0001) //          Total. Y spins =              0
(PID.TID 0000.0001) //            Avg. Y spins =       0.00E+00
(PID.TID 0000.0001) // o Tile number: 000008
(PID.TID 0000.0001) //         No. X exchanges =              0
(PID.TID 0000.0001) //            Max. X spins =              0
(PID.TID 0000.0001) //            Min. X spins =     1000000000
(PID.TID 0000.0001) //          Total. X spins =              0
(PID.TID 0000.0001) //            Avg. X spins =       0.00E+00
(PID.TID 0000.0001) //         No. Y exchanges =              0
(PID.TID 0000.0001) //            Max. Y spins =              0
(PID.TID 0000.0001) //            Min. Y spins =     1000000000
(PID.TID 0000.0001) //          Total. Y spins =              0
(PID.TID 0000.0001) //            Avg. Y spins =       0.00E+00
(PID.TID 0000.0001) // o Tile number: 000009
(PID.TID 0000.0001) //         No. X exchanges =              0
(PID.TID 0000.0001) //            Max. X spins =              0
(PID.TID 0000.0001) //            Min. X spins =     1000000000
(PID.TID 0000.0001) //          Total. X spins =              0
(PID.TID 0000.0001) //            Avg. X spins =       0.00E+00
(PID.TID 0000.0001) //         No. Y exchanges =              0
(PID.TID 0000.0001) //            Max. Y spins =              0
(PID.TID 0000.0001) //            Min. Y spins =     1000000000
(PID.TID 0000.0001) //          Total. Y spins =              0
(PID.TID 0000.0001) //            Avg. Y spins =       0.00E+00
(PID.TID 0000.0001) // o Tile number: 000010
(PID.TID 0000.0001) //         No. X exchanges =              0
(PID.TID 0000.0001) //            Max. X spins =              0
(PID.TID 0000.0001) //            Min. X spins =     1000000000
(PID.TID 0000.0001) //          Total. X spins =              0
(PID.TID 0000.0001) //            Avg. X spins =       0.00E+00
(PID.TID 0000.0001) //         No. Y exchanges =              0
(PID.TID 0000.0001) //            Max. Y spins =              0
(PID.TID 0000.0001) //            Min. Y spins =     1000000000
(PID.TID 0000.0001) //          Total. Y spins =              0
(PID.TID 0000.0001) //            Avg. Y spins =       0.00E+00
(PID.TID 0000.0001) // o Thread number: 000001
(PID.TID 0000.0001) //            No. barriers =          71710
(PID.TID 0000.0001) //      Max. barrier spins =              1
(PID.TID 0000.0001) //      Min. barrier spins =              1
(PID.TID 0000.0001) //     Total barrier spins =          71710
(PID.TID 0000.0001) //      Avg. barrier spins =       1.00E+00
PROGRAM MAIN: Execution ended Normally
