(PID.TID 0000.0001) 
(PID.TID 0000.0001) // ======================================================
(PID.TID 0000.0001) //                      MITgcm UV
(PID.TID 0000.0001) //                      =========
(PID.TID 0000.0001) // ======================================================
(PID.TID 0000.0001) // execution environment starting up...
(PID.TID 0000.0001) 
(PID.TID 0000.0001) // MITgcmUV version:  checkpoint67c
(PID.TID 0000.0001) // Build user:        dmenemen
(PID.TID 0000.0001) // Build host:        r3i3n8
(PID.TID 0000.0001) // Build date:        Fri Jul 20 19:41:21 PDT 2018
(PID.TID 0000.0001) 
(PID.TID 0000.0001) // =======================================================
(PID.TID 0000.0001) // Execution Environment parameter file "eedata"
(PID.TID 0000.0001) // =======================================================
(PID.TID 0000.0001) ># Example "eedata" file
(PID.TID 0000.0001) ># Lines beginning "#" are comments
(PID.TID 0000.0001) ># nTx - No. threads per process in X
(PID.TID 0000.0001) ># nTy - No. threads per process in Y
(PID.TID 0000.0001) > &EEPARMS
(PID.TID 0000.0001) > useCubedSphereExchange=.TRUE.,
(PID.TID 0000.0001) > nTx=1,
(PID.TID 0000.0001) > nTy=1,
(PID.TID 0000.0001) ># debugMode=.TRUE.,
(PID.TID 0000.0001) > /
(PID.TID 0000.0001) ># Note: Some systems use & as the
(PID.TID 0000.0001) ># namelist terminator. Other systems
(PID.TID 0000.0001) ># use a / character (as shown here).
(PID.TID 0000.0001) 
(PID.TID 0000.0001) // =======================================================
(PID.TID 0000.0001) // Computational Grid Specification ( see files "SIZE.h" )
(PID.TID 0000.0001) //                                  ( and "eedata"       )
(PID.TID 0000.0001) // =======================================================
(PID.TID 0000.0001)      nPx =  118 ; /* No. processes in X */
(PID.TID 0000.0001)      nPy =    1 ; /* No. processes in Y */
(PID.TID 0000.0001)      nSx =    1 ; /* No. tiles in X per process */
(PID.TID 0000.0001)      nSy =    1 ; /* No. tiles in Y per process */
(PID.TID 0000.0001)      sNx =   90 ; /* Tile size in X */
(PID.TID 0000.0001)      sNy =   90 ; /* Tile size in Y */
(PID.TID 0000.0001)      OLx =    8 ; /* Tile overlap distance in X */
(PID.TID 0000.0001)      OLy =    8 ; /* Tile overlap distance in Y */
(PID.TID 0000.0001)      nTx =    1 ; /* No. threads in X per process */
(PID.TID 0000.0001)      nTy =    1 ; /* No. threads in Y per process */
(PID.TID 0000.0001)       Nr =  100 ; /* No. levels in the vertical   */
(PID.TID 0000.0001)       Nx =10620 ; /* Total domain size in X ( = nPx*nSx*sNx ) */
(PID.TID 0000.0001)       Ny =   90 ; /* Total domain size in Y ( = nPy*nSy*sNy ) */
(PID.TID 0000.0001)   nTiles =    1 ; /* Total no. tiles per process ( = nSx*nSy ) */
(PID.TID 0000.0001)   nProcs =  118 ; /* Total no. processes ( = nPx*nPy ) */
(PID.TID 0000.0001) nThreads =    1 ; /* Total no. threads per process ( = nTx*nTy ) */
(PID.TID 0000.0001) usingMPI =    T ; /* Flag used to control whether MPI is in use */
(PID.TID 0000.0001)                   /*  note: To execute a program with MPI calls */
(PID.TID 0000.0001)                   /*  it must be launched appropriately e.g     */
(PID.TID 0000.0001)                   /*  "mpirun -np 64 ......"                    */
(PID.TID 0000.0001) useCoupler=    F ;/* Flag used to control communications with   */
(PID.TID 0000.0001)                   /*  other model components, through a coupler */
(PID.TID 0000.0001) debugMode =    F ; /* print debug msg. (sequence of S/R calls)  */
(PID.TID 0000.0001) printMapIncludesZeros=    F ; /* print zeros in Std.Output maps */
(PID.TID 0000.0001) maxLengthPrt1D=   65 /* maxLength of 1D array printed to StdOut */
(PID.TID 0000.0001) 
(PID.TID 0000.0001) ======= Starting MPI parallel Run =========
(PID.TID 0000.0001)  My Processor Name (len:  6 ) = r3i3n8
(PID.TID 0000.0001)  Located at (  0,  0) on processor grid (0:117,0:  0)
(PID.TID 0000.0001)  Origin at  (     1,     1) on global grid (1: 10620,1:    90)
(PID.TID 0000.0001)  North neighbor = processor 0000
(PID.TID 0000.0001)  South neighbor = processor 0000
(PID.TID 0000.0001)   East neighbor = processor 0001
(PID.TID 0000.0001)   West neighbor = processor 0117
(PID.TID 0000.0001) // ======================================================
(PID.TID 0000.0001) // Mapping of tiles to threads
(PID.TID 0000.0001) // ======================================================
(PID.TID 0000.0001) // -o- Thread   1, tiles (   1:   1,   1:   1)
(PID.TID 0000.0001) 
(PID.TID 0000.0001) W2_READPARMS: opening data.exch2
(PID.TID 0000.0001)  OPEN_COPY_DATA_FILE: opening file data.exch2
(PID.TID 0000.0001) // =======================================================
(PID.TID 0000.0001) // Parameter file "data.exch2"
(PID.TID 0000.0001) // =======================================================
(PID.TID 0000.0001) ># EXCH2 Package: Wrapper-2 User Choice
(PID.TID 0000.0001) >#--------------------
(PID.TID 0000.0001) >#  preDefTopol   :: pre-defined Topology selector:
(PID.TID 0000.0001) >#                :: = 0 : topology defined from processing "data.exch2";
(PID.TID 0000.0001) >#                :: = 1 : simple, single facet topology;
(PID.TID 0000.0001) >#                :: = 2 : customized topology (w2_set_myown_facets)
(PID.TID 0000.0001) >#                :: = 3 : 6-facet Cube (3 face-dims: nRed, nGreen, nBlue).
(PID.TID 0000.0001) >#  dimsFacets    :: facet pair of dimensions (n1x,n1y, n2x,n2y ...)
(PID.TID 0000.0001) >#  facetEdgeLink :: Face-Edge connectivity map:
(PID.TID 0000.0001) >#    facetEdgeLink(i,j)=XX.1 : face(j)-edge(i) (i=1,2,3,4 <==> N,S,E,W)
(PID.TID 0000.0001) >#    is connected to Northern edge of face "XX" ; similarly,
(PID.TID 0000.0001) >#    = XX.2 : to Southern.E, XX.3 = Eastern.E, XX.4 = Western.E of face "XX"
(PID.TID 0000.0001) >#  blankList     :: List of "blank" tiles
(PID.TID 0000.0001) >#  W2_mapIO      :: global map IO selector (-1 = old type ; 0 = 1 long line in X
(PID.TID 0000.0001) >#                :: 1 = compact, mostly in Y dir)
(PID.TID 0000.0001) >#  W2_printMsg   :: option for information messages printing
(PID.TID 0000.0001) >#                :: <0 : write to log file ; =0 : minimum print ;
(PID.TID 0000.0001) >#                :: =1 : no duplicated print ; =2 : all processes do print
(PID.TID 0000.0001) >#--------------------
(PID.TID 0000.0001) > &W2_EXCH2_PARM01
(PID.TID 0000.0001) >  W2_printMsg= 0,
(PID.TID 0000.0001) >  W2_mapIO   = 1,
(PID.TID 0000.0001) >#
(PID.TID 0000.0001) >#-- 5 facets llc_270 topology (drop facet 6 and its connection):
(PID.TID 0000.0001) >  preDefTopol = 0,
(PID.TID 0000.0001) >  dimsFacets = 1080, 540, 0, 0, 0, 0, 0, 0, 540, 1080, 0, 0,
(PID.TID 0000.0001) >  facetEdgeLink(1,1)= 0. , 0. , 0. , 5.1,
(PID.TID 0000.0001) >  facetEdgeLink(1,2)= 0. , 0. , 0. , 0. ,
(PID.TID 0000.0001) >  facetEdgeLink(1,3)= 0. , 0. , 0. , 0. ,
(PID.TID 0000.0001) >  facetEdgeLink(1,4)= 0. , 0. , 0. , 0. ,
(PID.TID 0000.0001) >  facetEdgeLink(1,5)= 1.4, 0. , 0. , 0. ,
(PID.TID 0000.0001) >  blankList = 9, 10, 11, 12, 21, 22, 23, 24, 34, 35, 36, 46, 47, 48, 57, 58, 59, 60, 69, 70, 71, 72, 73, 74, 75, 79,
(PID.TID 0000.0001) > &
(PID.TID 0000.0001) 
(PID.TID 0000.0001) W2_READPARMS: finished reading data.exch2
(PID.TID 0000.0001) W2_useE2ioLayOut=    T ;/* T: use Exch2 glob IO map; F: use model default */
(PID.TID 0000.0001) W2_mapIO        =   1 ; /* select option for Exch2 global-IO map */
(PID.TID 0000.0001) W2_printMsg     =   0 ; /* select option for printing information */
(PID.TID 0000.0001) ===== Start setting W2 TOPOLOGY:
(PID.TID 0000.0001) W2_E2SETUP: number of Active Tiles =     118
(PID.TID 0000.0001) W2_E2SETUP: number of Blank Tiles  =      26
(PID.TID 0000.0001) W2_E2SETUP: Total number of Tiles  =     144
(PID.TID 0000.0001) W2_SET_GEN_FACETS: preDefTopol=  0 selected
(PID.TID 0000.0001) W2_SET_GEN_FACETS: Number of facets =  5 (inferred from "dimsFacets")
(PID.TID 0000.0001) W2_E2SETUP: Total number of Facets =       5
(PID.TID 0000.0001) W2_SET_F2F_INDEX: index matrix for connected Facet-Edges:
(PID.TID 0000.0001) ** WARNING ** N.Edge of facet #  1 disconnected (facet_link=  0.00)
(PID.TID 0000.0001) ** WARNING ** S.Edge of facet #  1 disconnected (facet_link=  0.00)
(PID.TID 0000.0001) ** WARNING ** E.Edge of facet #  1 disconnected (facet_link=  0.00)
(PID.TID 0000.0001) ** WARNING ** N.Edge of facet #  2 disconnected (facet_link=  0.00)
(PID.TID 0000.0001) ** WARNING ** S.Edge of facet #  2 disconnected (facet_link=  0.00)
(PID.TID 0000.0001) ** WARNING ** E.Edge of facet #  2 disconnected (facet_link=  0.00)
(PID.TID 0000.0001) ** WARNING ** W.Edge of facet #  2 disconnected (facet_link=  0.00)
(PID.TID 0000.0001) ** WARNING ** N.Edge of facet #  3 disconnected (facet_link=  0.00)
(PID.TID 0000.0001) ** WARNING ** S.Edge of facet #  3 disconnected (facet_link=  0.00)
(PID.TID 0000.0001) ** WARNING ** E.Edge of facet #  3 disconnected (facet_link=  0.00)
(PID.TID 0000.0001) ** WARNING ** W.Edge of facet #  3 disconnected (facet_link=  0.00)
(PID.TID 0000.0001) ** WARNING ** N.Edge of facet #  4 disconnected (facet_link=  0.00)
(PID.TID 0000.0001) ** WARNING ** S.Edge of facet #  4 disconnected (facet_link=  0.00)
(PID.TID 0000.0001) ** WARNING ** E.Edge of facet #  4 disconnected (facet_link=  0.00)
(PID.TID 0000.0001) ** WARNING ** W.Edge of facet #  4 disconnected (facet_link=  0.00)
(PID.TID 0000.0001) ** WARNING ** S.Edge of facet #  5 disconnected (facet_link=  0.00)
(PID.TID 0000.0001) ** WARNING ** E.Edge of facet #  5 disconnected (facet_link=  0.00)
(PID.TID 0000.0001) ** WARNING ** W.Edge of facet #  5 disconnected (facet_link=  0.00)
(PID.TID 0000.0001) W2_SET_MAP_TILES: tile mapping within facet and global Map:
(PID.TID 0000.0001)  W2_mapIO =  540 (=    6*sNx)
(PID.TID 0000.0001)  Global Map (IO): X-size=     540 , Y-size=    2160
(PID.TID 0000.0001) W2_SET_MAP_TILES: tile offset within facet and global Map:
- facet  1 : X-size=  1080 , Y-size=   540 ;   72 tiles (Tx,Ty=  12,   6)
- facet  2 : X-size=     0 , Y-size=     0 ;    0 tiles (Tx,Ty=   0,   0)
- facet  3 : X-size=     0 , Y-size=     0 ;    0 tiles (Tx,Ty=   0,   0)
- facet  4 : X-size=     0 , Y-size=     0 ;    0 tiles (Tx,Ty=   0,   0)
- facet  5 : X-size=   540 , Y-size=  1080 ;   72 tiles (Tx,Ty=   6,  12)
(PID.TID 0000.0001) W2_SET_MAP_CUMSUM: setting Facet Matrix for CUMUL-SUM
(PID.TID 0000.0001) W2_SET_MAP_CUMSUM: set    1 /   2 active facets (pass,type=   1, 3)
 Facet Matrix for CUMUL-SUM (nFacets=   5, nActive=   2 ):
- facet  1 :  0  0 ,  0  0 ,  0  0 ,  0  0 ,  0  0 ,
- facet  2 :  0  0 ,  0  0 ,  0  0 ,  0  0 ,  0  0 ,
- facet  3 :  0  0 ,  0  0 ,  0  0 ,  0  0 ,  0  0 ,
- facet  4 :  0  0 ,  0  0 ,  0  0 ,  0  0 ,  0  0 ,
- facet  5 :  0  1 ,  0  0 ,  0  0 ,  0  0 ,  0 -1 ,
 missing-corner Tile for CUMUL-SUM (nTiles=   144 ): W2_tMC1=    61 , W2_tMC2=     0
(PID.TID 0000.0001) W2_SET_MAP_CUMSUM: done (skip Tile Matrix setting)
(PID.TID 0000.0001) W2_SET_TILE2TILES: tile neighbours and index connection:
(PID.TID 0000.0001) current Max.Nb.Neighbours (e.g., on tile   13 ) =  4
(PID.TID 0000.0001) ===== W2 TILE TOPOLOGY =====
(PID.TID 0000.0001)  TILE:     1 (bi,bj=   1   1 ), Nb of Neighbours =  3
(PID.TID 0000.0001)     NEIGHBOUR  1 = TILE   13 (n=  2) Comm = MSG (PROC=    9)
(PID.TID 0000.0001)     NEIGHBOUR  2 = TILE    2 (n=  3) Comm = MSG (PROC=    2)
(PID.TID 0000.0001)     NEIGHBOUR  3 = TILE  144 (n=  1) Comm = MSG (PROC=  118)
(PID.TID 0000.0001) =====       setting W2 TOPOLOGY: Done
(PID.TID 0000.0001) 
(PID.TID 0000.0001)  INI_PARMS: opening model parameter file "data"
(PID.TID 0000.0001)  OPEN_COPY_DATA_FILE: opening file data
(PID.TID 0000.0001) // =======================================================
(PID.TID 0000.0001) // Parameter file "data"
(PID.TID 0000.0001) // =======================================================
(PID.TID 0000.0001) >### Data file with primary model parameters -----------------------------------
(PID.TID 0000.0001) >#
(PID.TID 0000.0001) >### Continuous equation parameters --------------------------------------------
(PID.TID 0000.0001) > &PARM01
(PID.TID 0000.0001) >## Reference temperatures and salinities for every vertical level.
(PID.TID 0000.0001) > tRef =  18.89, 18.89, 18.89, 18.89, 18.89, 18.87, 18.85, 18.82,
(PID.TID 0000.0001) >         18.80, 18.73, 18.63, 18.49, 18.28, 18.08, 17.86, 17.63,
(PID.TID 0000.0001) >         17.40, 17.18, 16.95, 16.73, 16.52, 16.31, 16.10, 15.89,
(PID.TID 0000.0001) >         15.69, 15.49, 15.28, 15.08, 14.88, 14.67, 14.47, 14.25,
(PID.TID 0000.0001) >         14.03, 13.80, 13.55, 13.29, 13.01, 12.73, 12.42, 12.11,
(PID.TID 0000.0001) >         11.78, 11.43, 11.07, 10.70, 10.31,  9.93,  9.53,  9.11,
(PID.TID 0000.0001) >          8.71,  8.29,  7.89,  7.51,  7.13,  6.78,  6.44,  6.11,
(PID.TID 0000.0001) >          5.81,  5.51,  5.23,  4.97,  4.73,  4.51,  4.30,  4.11,
(PID.TID 0000.0001) >          3.94,  3.78,  3.63,  3.50,  3.38,  3.25,  3.14,  3.04,
(PID.TID 0000.0001) >          2.94,  2.83,  2.74,  2.64,  2.54,  2.45,  2.36,  2.27,
(PID.TID 0000.0001) >          2.19,  2.10,  2.03,  1.95,  1.86,  1.78,  1.70,  1.63,
(PID.TID 0000.0001) >          1.55,  1.48,  1.41,  1.34,  1.27,  1.20,  1.13,  1.06,
(PID.TID 0000.0001) >          1.00,  0.96,  0.93,  0.91,
(PID.TID 0000.0001) > sRef =  34.84, 34.84, 34.84, 34.84, 34.84, 34.84, 34.85, 34.85,
(PID.TID 0000.0001) >         34.85, 34.86, 34.87, 34.88, 34.90, 34.91, 34.93, 34.95,
(PID.TID 0000.0001) >         34.96, 34.98, 34.99, 35.00, 35.01, 35.02, 35.03, 35.04,
(PID.TID 0000.0001) >         35.05, 35.06, 35.07, 35.07, 35.07, 35.07, 35.07, 35.07,
(PID.TID 0000.0001) >         35.07, 35.06, 35.05, 35.04, 35.03, 35.02, 35.01, 34.99,
(PID.TID 0000.0001) >         34.97, 34.95, 34.92, 34.90, 34.87, 34.84, 34.81, 34.78,
(PID.TID 0000.0001) >         34.75, 34.72, 34.69, 34.67, 34.65, 34.62, 34.61, 34.60,
(PID.TID 0000.0001) >         34.59, 34.59, 34.58, 34.59, 34.59, 34.60, 34.60, 34.61,
(PID.TID 0000.0001) >         34.62, 34.63, 34.64, 34.65, 34.66, 34.67, 34.67, 34.68,
(PID.TID 0000.0001) >         34.69, 34.70, 34.71, 34.71, 34.72, 34.72, 34.73, 34.73,
(PID.TID 0000.0001) >         34.73, 34.74, 34.74, 34.74, 34.74, 34.75, 34.74, 34.74,
(PID.TID 0000.0001) >         34.74, 34.74, 34.74, 34.74, 34.74, 34.74, 34.73, 34.73,
(PID.TID 0000.0001) >         34.73, 34.73, 34.73, 34.73,
(PID.TID 0000.0001) > rhonil        = 1029.,
(PID.TID 0000.0001) > rhoConstFresh = 1000.,
(PID.TID 0000.0001) > eosType = 'JMD95Z',
(PID.TID 0000.0001) >#
(PID.TID 0000.0001) >## Various prescriptions for viscosity and diffusivity.
(PID.TID 0000.0001) > viscAr     = 5.e-04,
(PID.TID 0000.0001) > viscA4Grid = 0.0,
(PID.TID 0000.0001) > diffKhT    = 0.E0,
(PID.TID 0000.0001) > diffKhS    = 0.E0,
(PID.TID 0000.0001) > diffK4T    = 0.E10,
(PID.TID 0000.0001) > diffK4S    = 0.E10,
(PID.TID 0000.0001) > diffKrT    = 1.0e-5,
(PID.TID 0000.0001) > diffKrS    = 1.0e-5,
(PID.TID 0000.0001) > bottomDragQuadratic = 0.002,
(PID.TID 0000.0001) > no_slip_sides     = .TRUE.,
(PID.TID 0000.0001) > no_slip_bottom    = .TRUE.,
(PID.TID 0000.0001) > implicitDiffusion = .TRUE.,
(PID.TID 0000.0001) > implicitViscosity = .TRUE.,
(PID.TID 0000.0001) ># horizontal momentum closure
(PID.TID 0000.0001) > viscC4Leith   = 2.0,
(PID.TID 0000.0001) > viscC4Leithd  = 2.0,
(PID.TID 0000.0001) > viscA4GridMax = 0.8,
(PID.TID 0000.0001) >#
(PID.TID 0000.0001) >## Parameters that control numerical methods like advection schemes and
(PID.TID 0000.0001) >#  treatment of the free-surface.
(PID.TID 0000.0001) > tempAdvScheme = 7,
(PID.TID 0000.0001) > saltAdvScheme = 7,
(PID.TID 0000.0001) > implicitFreeSurface     = .TRUE.,
(PID.TID 0000.0001) > staggerTimeStep         = .TRUE.,
(PID.TID 0000.0001) > exactConserv            = .TRUE.,
(PID.TID 0000.0001) > vectorInvariantMomentum = .TRUE.,
(PID.TID 0000.0001) > useAreaViscLength       = .TRUE.,
(PID.TID 0000.0001) > highOrderVorticity      = .TRUE.,
(PID.TID 0000.0001) > multiDimAdvection       = .TRUE.,
(PID.TID 0000.0001) >#
(PID.TID 0000.0001) >## These parameters seem to be associated with the external forcing.
(PID.TID 0000.0001) > convertFW2Salt = -1.,
(PID.TID 0000.0001) > temp_EvPrRn    =  0.,
(PID.TID 0000.0001) > useRealFreshWaterFlux = .FALSE.,
(PID.TID 0000.0001) > allowFreezing         = .FALSE.,
(PID.TID 0000.0001) >#
(PID.TID 0000.0001) >## Parameters associated with bathymetry specification.
(PID.TID 0000.0001) > hFacMin   = 0.2,
(PID.TID 0000.0001) > hFacMinDr = 5.,
(PID.TID 0000.0001) >#
(PID.TID 0000.0001) >## Parameters for reading, writing, and misc numerical details.
(PID.TID 0000.0001) > globalFiles     = .TRUE.,
(PID.TID 0000.0001) > useSingleCpuIO  = .TRUE.,
(PID.TID 0000.0001) > readBinaryPrec  = 32,
(PID.TID 0000.0001) > writeBinaryPrec = 32,
(PID.TID 0000.0001) > debuglevel      = 2,
(PID.TID 0000.0001) >#
(PID.TID 0000.0001) >## Unused parameters.
(PID.TID 0000.0001) ># gravity = 9.81,
(PID.TID 0000.0001) ># viscA4Grid = 2.0E-3,
(PID.TID 0000.0001) ># viscAhGrid = 2.5E-4,
(PID.TID 0000.0001) ># bottomDraglinear    = 1.E-3,
(PID.TID 0000.0001) ># Note: nonlinFreeSurf=1 with rStar=0 breaks the code.
(PID.TID 0000.0001) ># nonlinFreeSurf = 4,
(PID.TID 0000.0001) ># select_rStar   = 1,
(PID.TID 0000.0001) ># hFacInf   = 0.1,
(PID.TID 0000.0001) ># hFacSup   = 5.,
(PID.TID 0000.0001) ># implicSurfPress = 0.6,
(PID.TID 0000.0001) ># implicDiv2DFlow = 0.6,
(PID.TID 0000.0001) ># useSingleCpuInput = .TRUE.,
(PID.TID 0000.0001) ># set to eccov4, make sure minbathy=20m first
(PID.TID 0000.0001) ># debuglevel = -1,
(PID.TID 0000.0001) ># useJamartWetPoints = .TRUE.,
(PID.TID 0000.0001) ># writeBinaryPrec=64,
(PID.TID 0000.0001) > /
(PID.TID 0000.0001) >### Elliptic solver parameters ------------------------------------------------
(PID.TID 0000.0001) > &PARM02
(PID.TID 0000.0001) > cg2dMaxIters       = 1000,
(PID.TID 0000.0001) ># cg2dTargetResidual = 1.E-8,
(PID.TID 0000.0001) > cg2dTargetResWunit = 1e-18,
(PID.TID 0000.0001) >#
(PID.TID 0000.0001) >#cg2dMaxIters       = 100,
(PID.TID 0000.0001) >#cg2dTargetResidual = 1.E-5,
(PID.TID 0000.0001) > &
(PID.TID 0000.0001) >### Time stepping parameters --------------------------------------------------
(PID.TID 0000.0001) > &PARM03
(PID.TID 0000.0001) > deltaT      =    240.,
(PID.TID 0000.0001) > nIter0      =  0,
(PID.TID 0000.0001) > nTimeSteps  =  15,
(PID.TID 0000.0001) > pChkptFreq  = 864000.,
(PID.TID 0000.0001) > monitorFreq =   240.,
(PID.TID 0000.0001) > abEps       = 0.1,
(PID.TID 0000.0001) >## It is unclear what these specify.
(PID.TID 0000.0001) > pickupStrictlyMatch = .FALSE.,
(PID.TID 0000.0001) > forcing_In_AB       = .FALSE.,
(PID.TID 0000.0001) > momDissip_In_AB     = .FALSE.,
(PID.TID 0000.0001) > dumpInitAndLast     = .FALSE.,
(PID.TID 0000.0001) > /
(PID.TID 0000.0001) >### Gridding parameters -------------------------------------------------------
(PID.TID 0000.0001) > &PARM04
(PID.TID 0000.0001) >## When using a curvilinear grid, only the vertical grid is specified.
(PID.TID 0000.0001) > usingCurvilinearGrid = .TRUE.,
(PID.TID 0000.0001) >## Specify the height of each vertical level.
(PID.TID 0000.0001) > delR =   5.00,   5.00,   5.00,   5.00,   5.00,   5.00,   5.00,   5.00,   5.00,
(PID.TID 0000.0001) >          5.00,   5.00,   5.00,   5.00,   5.00,   5.00,   5.01,   5.01,   5.02,
(PID.TID 0000.0001) >          5.04,   5.07,   5.12,   5.20,   5.31,   5.49,   5.72,   6.04,   6.45,
(PID.TID 0000.0001) >          6.97,   7.62,   8.42,   9.36,  10.46,  11.72,  13.13,  14.70,  16.40,
(PID.TID 0000.0001) >         18.24,  20.18,  22.21,  24.29,  26.43,  28.57,  30.71,  32.79,  34.82,
(PID.TID 0000.0001) >         36.76,  38.60,  40.30,  41.87,  43.28,  44.54,  45.64,  46.58,  47.38,
(PID.TID 0000.0001) >         48.03,  48.55,  48.96,  49.29,  49.53,  49.72,  49.90,  50.11,  50.41,
(PID.TID 0000.0001) >         50.92,  51.69,  52.87,  54.54,  56.79,  59.67,  63.16,  67.26,  71.83,
(PID.TID 0000.0001) >         76.83,  82.11,  87.61,  93.22,  98.91, 104.64, 110.38, 116.12, 121.87,
(PID.TID 0000.0001) >        127.63, 133.38, 139.12, 144.87, 150.63, 156.38, 162.12, 167.87, 173.63,
(PID.TID 0000.0001) >        179.38, 185.12, 190.87, 196.63, 202.38, 208.12, 213.87, 219.63, 225.38,
(PID.TID 0000.0001) >        231.12,
(PID.TID 0000.0001) > /
(PID.TID 0000.0001) ># -----------------------------------------------------------------------------
(PID.TID 0000.0001) >### Bathymetry files and initial condition files
(PID.TID 0000.0001) > &PARM05
(PID.TID 0000.0001) > bathyFile       = 'bathy.bin',
(PID.TID 0000.0001) > hydrogThetaFile = 'T0_2160x540x100.bin',
(PID.TID 0000.0001) > hydrogSaltFile  = 'S0_2160x540x100.bin',
(PID.TID 0000.0001) > uVelInitFile    = 'U0_2160x540x100.bin',
(PID.TID 0000.0001) > vVelInitFile    = 'V0_2160x540x100.bin',
(PID.TID 0000.0001) ># diffKrFile  = 'diffkr_basin_v1m9EfC_llc1080.bin',
(PID.TID 0000.0001) ># viscA4Dfile = 'visc3DblendfromrunobcsCdiv1e6_08Mar2016_aste2160.bin',
(PID.TID 0000.0001) ># viscA4Zfile = 'visc3DblendfromrunobcsCdiv1e6_08Mar2016_aste2160.bin',
(PID.TID 0000.0001) > /
(PID.TID 0000.0001) 
(PID.TID 0000.0001)  INI_PARMS ; starts to read PARM01
(PID.TID 0000.0001)  INI_PARMS ; read PARM01 : OK
(PID.TID 0000.0001)  INI_PARMS ; starts to read PARM02
(PID.TID 0000.0001)  INI_PARMS ; read PARM02 : OK
(PID.TID 0000.0001)  INI_PARMS ; starts to read PARM03
(PID.TID 0000.0001)  INI_PARMS ; read PARM03 : OK
(PID.TID 0000.0001)  INI_PARMS ; starts to read PARM04
(PID.TID 0000.0001)  INI_PARMS ; read PARM04 : OK
(PID.TID 0000.0001)  INI_PARMS ; starts to read PARM05
(PID.TID 0000.0001)  INI_PARMS ; read PARM05 : OK
(PID.TID 0000.0001)  INI_PARMS: finished reading file "data"
(PID.TID 0000.0001)  PACKAGES_BOOT: opening data.pkg
(PID.TID 0000.0001)  OPEN_COPY_DATA_FILE: opening file data.pkg
(PID.TID 0000.0001) // =======================================================
(PID.TID 0000.0001) // Parameter file "data.pkg"
(PID.TID 0000.0001) // =======================================================
(PID.TID 0000.0001) ># Packages
(PID.TID 0000.0001) > &PACKAGES
(PID.TID 0000.0001) > useCAL         = .TRUE.,
(PID.TID 0000.0001) > useEXF         = .TRUE.,
(PID.TID 0000.0001) > useKPP         = .TRUE.,
(PID.TID 0000.0001) > useDiagnostics = .TRUE.,
(PID.TID 0000.0001) > useOBCS        = .TRUE.,
(PID.TID 0000.0001) ># useProfiles=.TRUE.,
(PID.TID 0000.0001) > /
(PID.TID 0000.0001) 
(PID.TID 0000.0001)  PACKAGES_BOOT: finished reading data.pkg
(PID.TID 0000.0001)  PACKAGES_BOOT: On/Off package Summary
 --------  pkgs with a standard "usePKG" On/Off switch in "data.pkg":  --------
 pkg/obcs                 compiled   and   used ( useOBCS                  = T )
 pkg/kpp                  compiled   and   used ( useKPP                   = T )
 pkg/cal                  compiled   and   used ( useCAL                   = T )
 pkg/exf                  compiled   and   used ( useEXF                   = T )
 pkg/diagnostics          compiled   and   used ( useDiagnostics           = T )
 -------- pkgs without standard "usePKG" On/Off switch in "data.pkg":  --------
 pkg/generic_advdiff      compiled   and   used ( useGAD                   = T )
 pkg/mom_common           compiled   and   used ( momStepping              = T )
 pkg/mom_vecinv           compiled   and   used ( +vectorInvariantMomentum = T )
 pkg/monitor              compiled   and   used ( monitorFreq > 0.         = T )
 pkg/debug                compiled but not used ( debugMode                = F )
 pkg/exch2                compiled   and   used
 pkg/rw                   compiled   and   used
 pkg/mdsio                compiled   and   used
(PID.TID 0000.0001)  PACKAGES_BOOT: End of package Summary
(PID.TID 0000.0001) 
(PID.TID 0000.0001) CAL_READPARMS: opening data.cal
(PID.TID 0000.0001)  OPEN_COPY_DATA_FILE: opening file data.cal
(PID.TID 0000.0001) // =======================================================
(PID.TID 0000.0001) // Parameter file "data.cal"
(PID.TID 0000.0001) // =======================================================
(PID.TID 0000.0001) >#
(PID.TID 0000.0001) ># *******************
(PID.TID 0000.0001) ># Calendar Parameters
(PID.TID 0000.0001) ># *******************
(PID.TID 0000.0001) > &CAL_NML
(PID.TID 0000.0001) > TheCalendar='gregorian',
(PID.TID 0000.0001) > startDate_1=20030101,
(PID.TID 0000.0001) > startDate_2=000000,
(PID.TID 0000.0001) > calendarDumps = .TRUE.,
(PID.TID 0000.0001) > &
(PID.TID 0000.0001) 
(PID.TID 0000.0001) CAL_READPARMS: finished reading data.cal
(PID.TID 0000.0001) EXF_READPARMS: opening data.exf
(PID.TID 0000.0001)  OPEN_COPY_DATA_FILE: opening file data.exf
(PID.TID 0000.0001) // =======================================================
(PID.TID 0000.0001) // Parameter file "data.exf"
(PID.TID 0000.0001) // =======================================================
(PID.TID 0000.0001) ># *********************
(PID.TID 0000.0001) ># External Forcing Data
(PID.TID 0000.0001) ># *********************
(PID.TID 0000.0001) >#
(PID.TID 0000.0001) > &EXF_NML_01
(PID.TID 0000.0001) >#
(PID.TID 0000.0001) > useAtmWind        = .TRUE.,
(PID.TID 0000.0001) >#
(PID.TID 0000.0001) >#TO COMBINE WITH ALLOW_ZENITH_ANGLE:
(PID.TID 0000.0001) ># exf_albedo        = 0.1,
(PID.TID 0000.0001) ># useExfZenIncoming = .TRUE.,
(PID.TID 0000.0001) ># select_ZenAlbedo  = 1,
(PID.TID 0000.0001) >##
(PID.TID 0000.0001) ># ocean_emissivity = 0.97,
(PID.TID 0000.0001) ># ice_emissivity = 0.95,
(PID.TID 0000.0001) ># snow_emissivity = 0.95,
(PID.TID 0000.0001) >#
(PID.TID 0000.0001) ># exf_albedo        = 0.1556,
(PID.TID 0000.0001) > exf_albedo        = 0.1,
(PID.TID 0000.0001) > exf_scal_BulkCdn  = 0.9997,
(PID.TID 0000.0001) > exf_iprec         = 32,
(PID.TID 0000.0001) > exf_iprec_obcs    = 32,
(PID.TID 0000.0001) > exf_yftype        = 'RL',
(PID.TID 0000.0001) > useExfYearlyFields= .TRUE.,
(PID.TID 0000.0001) > useExfCheckRange  = .FALSE.,
(PID.TID 0000.0001) > useRelativeWind   = .TRUE.,
(PID.TID 0000.0001) > &
(PID.TID 0000.0001) >#
(PID.TID 0000.0001) > &EXF_NML_02
(PID.TID 0000.0001) > precipfile        = 'jra55/jra55_rain',
(PID.TID 0000.0001) > atempfile         = 'jra55/jra55_tmp2m_degC',
(PID.TID 0000.0001) > aqhfile           = 'jra55/jra55_spfh2m',
(PID.TID 0000.0001) > swdownfile        = 'jra55/jra55_dsw',
(PID.TID 0000.0001) > lwdownfile        = 'jra55/jra55_dlw',
(PID.TID 0000.0001) > apressurefile     = 'jra55/jra55_pres',
(PID.TID 0000.0001) > tidePotfile       = 'jra55/tide',
(PID.TID 0000.0001) > uwindfile         = 'jra55/jra55_u10m',
(PID.TID 0000.0001) > vwindfile         = 'jra55/jra55_v10m',
(PID.TID 0000.0001) > runofffile        = 'runoff1p2472-360x180x12.bin',
(PID.TID 0000.0001) >#
(PID.TID 0000.0001) > precipstartdate1  = 19790101,
(PID.TID 0000.0001) > precipstartdate2  = 013000,
(PID.TID 0000.0001) > precipperiod      = 10800.0,
(PID.TID 0000.0001) > atempstartdate1   = 19790101,
(PID.TID 0000.0001) > atempstartdate2   = 000000,
(PID.TID 0000.0001) > atempperiod       = 10800.0,
(PID.TID 0000.0001) > aqhstartdate1     = 19790101,
(PID.TID 0000.0001) > aqhstartdate2     = 000000,
(PID.TID 0000.0001) > aqhperiod         = 10800.0,
(PID.TID 0000.0001) > swdownstartdate1  = 19790101,
(PID.TID 0000.0001) > swdownstartdate2  = 013000,
(PID.TID 0000.0001) > swdownperiod      = 10800.0,
(PID.TID 0000.0001) > lwdownstartdate1  = 19790101,
(PID.TID 0000.0001) > lwdownstartdate2  = 013000,
(PID.TID 0000.0001) > lwdownperiod      = 10800.0,
(PID.TID 0000.0001) > apressurestartdate1  = 19790101,
(PID.TID 0000.0001) > apressurestartdate2  = 000000,
(PID.TID 0000.0001) > apressureperiod      = 10800.0,
(PID.TID 0000.0001) > tidePotstartdate1  = 19790101,
(PID.TID 0000.0001) > tidePotstartdate2  = 003000,
(PID.TID 0000.0001) > tidePotperiod      = 3600.0,
(PID.TID 0000.0001) > uwindstartdate1   = 19790101,
(PID.TID 0000.0001) > uwindstartdate2   = 000000,
(PID.TID 0000.0001) > uwindperiod       = 10800.0,
(PID.TID 0000.0001) > vwindstartdate1   = 19790101,
(PID.TID 0000.0001) > vwindstartdate2   = 000000,
(PID.TID 0000.0001) > vwindperiod       = 10800.0,
(PID.TID 0000.0001) ># "*period=-12" specifies monthly-mean forcing
(PID.TID 0000.0001) > runoffperiod      = -12,
(PID.TID 0000.0001) > &
(PID.TID 0000.0001) >#
(PID.TID 0000.0001) > &EXF_NML_03
(PID.TID 0000.0001) > exf_offset_atemp  = 273.15,
(PID.TID 0000.0001) > exf_inscal_swdown = -1.,
(PID.TID 0000.0001) > exf_inscal_lwdown = -1.,
(PID.TID 0000.0001) ># 1/365/24/3600 yr/s conversion, runoff [m/yr --> m/s]
(PID.TID 0000.0001) > exf_inscal_runoff = 3.1710e-08,
(PID.TID 0000.0001) ># divide by rhonil (1029 kg/m^3) to convert from Pa to m^2/s^2
(PID.TID 0000.0001) > exf_inscal_tidePot = .00097181729834791059,
(PID.TID 0000.0001) > &
(PID.TID 0000.0001) >#
(PID.TID 0000.0001) > &EXF_NML_04
(PID.TID 0000.0001) >#if in global lat/lon, need interp, comment out runoff_interpMethod
(PID.TID 0000.0001) >#if already in aste compact format, set runoff_interpMethod=0
(PID.TID 0000.0001) ># runoff_interpMethod = 0,
(PID.TID 0000.0001) >#
(PID.TID 0000.0001) > precip_lon0       = 0.0D0,
(PID.TID 0000.0001) > precip_lon_inc    = 0.5625D0,
(PID.TID 0000.0001) > precip_lat0       = -89.57009D0,
(PID.TID 0000.0001) > precip_lat_inc    = 0.556914D0, 0.560202D0, 0.560946D0, 0.561227D0, 0.561363D0,
(PID.TID 0000.0001) >                     0.561440D0, 0.561487D0, 0.561518D0, 0.561539D0, 0.561554D0,
(PID.TID 0000.0001) >                     0.561566D0, 0.561575D0, 0.561582D0, 0.561587D0, 0.561592D0,
(PID.TID 0000.0001) >                     289*0.561619268965519,
(PID.TID 0000.0001) >                     0.561592D0, 0.561587D0, 0.561582D0, 0.561575D0, 0.561566D0,
(PID.TID 0000.0001) >                     0.561554D0, 0.561539D0, 0.561518D0, 0.561487D0, 0.561440D0,
(PID.TID 0000.0001) >                     0.561363D0, 0.561227D0, 0.560946D0, 0.560202D0, 0.556914D0,
(PID.TID 0000.0001) > precip_nlon       = 640,
(PID.TID 0000.0001) > precip_nlat       = 320,
(PID.TID 0000.0001) >#
(PID.TID 0000.0001) > atemp_lon0        = 0.0D0,
(PID.TID 0000.0001) > atemp_lon_inc     = 0.5625D0,
(PID.TID 0000.0001) > atemp_lat0        = -89.57009D0,
(PID.TID 0000.0001) > atemp_lat_inc     = 0.556914D0, 0.560202D0, 0.560946D0, 0.561227D0, 0.561363D0,
(PID.TID 0000.0001) >                     0.561440D0, 0.561487D0, 0.561518D0, 0.561539D0, 0.561554D0,
(PID.TID 0000.0001) >                     0.561566D0, 0.561575D0, 0.561582D0, 0.561587D0, 0.561592D0,
(PID.TID 0000.0001) >                     289*0.561619268965519,
(PID.TID 0000.0001) >                     0.561592D0, 0.561587D0, 0.561582D0, 0.561575D0, 0.561566D0,
(PID.TID 0000.0001) >                     0.561554D0, 0.561539D0, 0.561518D0, 0.561487D0, 0.561440D0,
(PID.TID 0000.0001) >                     0.561363D0, 0.561227D0, 0.560946D0, 0.560202D0, 0.556914D0,
(PID.TID 0000.0001) > atemp_nlon        = 640,
(PID.TID 0000.0001) > atemp_nlat        = 320,
(PID.TID 0000.0001) >#
(PID.TID 0000.0001) > aqh_lon0          = 0.0D0,
(PID.TID 0000.0001) > aqh_lon_inc       = 0.5625D0,
(PID.TID 0000.0001) > aqh_lat0          = -89.57009D0,
(PID.TID 0000.0001) > aqh_lat_inc       = 0.556914D0, 0.560202D0, 0.560946D0, 0.561227D0, 0.561363D0,
(PID.TID 0000.0001) >                     0.561440D0, 0.561487D0, 0.561518D0, 0.561539D0, 0.561554D0,
(PID.TID 0000.0001) >                     0.561566D0, 0.561575D0, 0.561582D0, 0.561587D0, 0.561592D0,
(PID.TID 0000.0001) >                     289*0.561619268965519,
(PID.TID 0000.0001) >                     0.561592D0, 0.561587D0, 0.561582D0, 0.561575D0, 0.561566D0,
(PID.TID 0000.0001) >                     0.561554D0, 0.561539D0, 0.561518D0, 0.561487D0, 0.561440D0,
(PID.TID 0000.0001) >                     0.561363D0, 0.561227D0, 0.560946D0, 0.560202D0, 0.556914D0,
(PID.TID 0000.0001) > aqh_nlon          = 640,
(PID.TID 0000.0001) > aqh_nlat          = 320,
(PID.TID 0000.0001) >#
(PID.TID 0000.0001) > swdown_lon0       = 0.0D0,
(PID.TID 0000.0001) > swdown_lon_inc    = 0.5625D0,
(PID.TID 0000.0001) > swdown_lat0       = -89.57009D0,
(PID.TID 0000.0001) > swdown_lat_inc    = 0.556914D0, 0.560202D0, 0.560946D0, 0.561227D0, 0.561363D0,
(PID.TID 0000.0001) >                     0.561440D0, 0.561487D0, 0.561518D0, 0.561539D0, 0.561554D0,
(PID.TID 0000.0001) >                     0.561566D0, 0.561575D0, 0.561582D0, 0.561587D0, 0.561592D0,
(PID.TID 0000.0001) >                     289*0.561619268965519,
(PID.TID 0000.0001) >                     0.561592D0, 0.561587D0, 0.561582D0, 0.561575D0, 0.561566D0,
(PID.TID 0000.0001) >                     0.561554D0, 0.561539D0, 0.561518D0, 0.561487D0, 0.561440D0,
(PID.TID 0000.0001) >                     0.561363D0, 0.561227D0, 0.560946D0, 0.560202D0, 0.556914D0,
(PID.TID 0000.0001) > swdown_nlon       = 640,
(PID.TID 0000.0001) > swdown_nlat       = 320,
(PID.TID 0000.0001) >#
(PID.TID 0000.0001) > lwdown_lon0       = 0.0D0,
(PID.TID 0000.0001) > lwdown_lon_inc    = 0.5625D0,
(PID.TID 0000.0001) > lwdown_lat0       = -89.57009D0,
(PID.TID 0000.0001) > lwdown_lat_inc    = 0.556914D0, 0.560202D0, 0.560946D0, 0.561227D0, 0.561363D0,
(PID.TID 0000.0001) >                     0.561440D0, 0.561487D0, 0.561518D0, 0.561539D0, 0.561554D0,
(PID.TID 0000.0001) >                     0.561566D0, 0.561575D0, 0.561582D0, 0.561587D0, 0.561592D0,
(PID.TID 0000.0001) >                     289*0.561619268965519,
(PID.TID 0000.0001) >                     0.561592D0, 0.561587D0, 0.561582D0, 0.561575D0, 0.561566D0,
(PID.TID 0000.0001) >                     0.561554D0, 0.561539D0, 0.561518D0, 0.561487D0, 0.561440D0,
(PID.TID 0000.0001) >                     0.561363D0, 0.561227D0, 0.560946D0, 0.560202D0, 0.556914D0,
(PID.TID 0000.0001) > lwdown_nlon       = 640,
(PID.TID 0000.0001) > lwdown_nlat       = 320,
(PID.TID 0000.0001) >#
(PID.TID 0000.0001) > apressure_lon0       = 0.0D0,
(PID.TID 0000.0001) > apressure_lon_inc    = 0.5625D0,
(PID.TID 0000.0001) > apressure_lat0       = -89.57009D0,
(PID.TID 0000.0001) > apressure_lat_inc    = 0.556914D0, 0.560202D0, 0.560946D0, 0.561227D0, 0.561363D0,
(PID.TID 0000.0001) >                     0.561440D0, 0.561487D0, 0.561518D0, 0.561539D0, 0.561554D0,
(PID.TID 0000.0001) >                     0.561566D0, 0.561575D0, 0.561582D0, 0.561587D0, 0.561592D0,
(PID.TID 0000.0001) >                     289*0.561619268965519,
(PID.TID 0000.0001) >                     0.561592D0, 0.561587D0, 0.561582D0, 0.561575D0, 0.561566D0,
(PID.TID 0000.0001) >                     0.561554D0, 0.561539D0, 0.561518D0, 0.561487D0, 0.561440D0,
(PID.TID 0000.0001) >                     0.561363D0, 0.561227D0, 0.560946D0, 0.560202D0, 0.556914D0,
(PID.TID 0000.0001) > apressure_nlon       = 640,
(PID.TID 0000.0001) > apressure_nlat       = 320,
(PID.TID 0000.0001) >#
(PID.TID 0000.0001) > tidePot_lon0       = 0.0D0,
(PID.TID 0000.0001) > tidePot_lon_inc    = 0.5625D0,
(PID.TID 0000.0001) > tidePot_lat0       = -89.57009D0,
(PID.TID 0000.0001) > tidePot_lat_inc    = 0.556914D0, 0.560202D0, 0.560946D0, 0.561227D0, 0.561363D0,
(PID.TID 0000.0001) >                     0.561440D0, 0.561487D0, 0.561518D0, 0.561539D0, 0.561554D0,
(PID.TID 0000.0001) >                     0.561566D0, 0.561575D0, 0.561582D0, 0.561587D0, 0.561592D0,
(PID.TID 0000.0001) >                     289*0.561619268965519,
(PID.TID 0000.0001) >                     0.561592D0, 0.561587D0, 0.561582D0, 0.561575D0, 0.561566D0,
(PID.TID 0000.0001) >                     0.561554D0, 0.561539D0, 0.561518D0, 0.561487D0, 0.561440D0,
(PID.TID 0000.0001) >                     0.561363D0, 0.561227D0, 0.560946D0, 0.560202D0, 0.556914D0,
(PID.TID 0000.0001) > tidePot_nlon       = 640,
(PID.TID 0000.0001) > tidePot_nlat       = 320,
(PID.TID 0000.0001) >#
(PID.TID 0000.0001) > uwind_lon0        = 0.0D0,
(PID.TID 0000.0001) > uwind_lon_inc     = 0.5625D0,
(PID.TID 0000.0001) > uwind_lat0        = -89.57009D0,
(PID.TID 0000.0001) > uwind_lat_inc     = 0.556914D0, 0.560202D0, 0.560946D0, 0.561227D0, 0.561363D0,
(PID.TID 0000.0001) >                     0.561440D0, 0.561487D0, 0.561518D0, 0.561539D0, 0.561554D0,
(PID.TID 0000.0001) >                     0.561566D0, 0.561575D0, 0.561582D0, 0.561587D0, 0.561592D0,
(PID.TID 0000.0001) >                     289*0.561619268965519,
(PID.TID 0000.0001) >                     0.561592D0, 0.561587D0, 0.561582D0, 0.561575D0, 0.561566D0,
(PID.TID 0000.0001) >                     0.561554D0, 0.561539D0, 0.561518D0, 0.561487D0, 0.561440D0,
(PID.TID 0000.0001) >                     0.561363D0, 0.561227D0, 0.560946D0, 0.560202D0, 0.556914D0,
(PID.TID 0000.0001) > uwind_nlon        = 640,
(PID.TID 0000.0001) > uwind_nlat        = 320,
(PID.TID 0000.0001) >#
(PID.TID 0000.0001) > vwind_lon0        = 0.0D0,
(PID.TID 0000.0001) > vwind_lon_inc     = 0.5625D0,
(PID.TID 0000.0001) > vwind_lat0        = -89.57009D0,
(PID.TID 0000.0001) > vwind_lat_inc     = 0.556914D0, 0.560202D0, 0.560946D0, 0.561227D0, 0.561363D0,
(PID.TID 0000.0001) >                     0.561440D0, 0.561487D0, 0.561518D0, 0.561539D0, 0.561554D0,
(PID.TID 0000.0001) >                     0.561566D0, 0.561575D0, 0.561582D0, 0.561587D0, 0.561592D0,
(PID.TID 0000.0001) >                     289*0.561619268965519,
(PID.TID 0000.0001) >                     0.561592D0, 0.561587D0, 0.561582D0, 0.561575D0, 0.561566D0,
(PID.TID 0000.0001) >                     0.561554D0, 0.561539D0, 0.561518D0, 0.561487D0, 0.561440D0,
(PID.TID 0000.0001) >                     0.561363D0, 0.561227D0, 0.560946D0, 0.560202D0, 0.556914D0,
(PID.TID 0000.0001) > vwind_nlon        = 640,
(PID.TID 0000.0001) > vwind_nlat        = 320,
(PID.TID 0000.0001) >#
(PID.TID 0000.0001) > runoff_lon0       = 0.50D0,
(PID.TID 0000.0001) > runoff_lon_inc    = 1.0D0,
(PID.TID 0000.0001) > runoff_lat0       = -89.5D0,
(PID.TID 0000.0001) > runoff_lat_inc    = 179*1.,
(PID.TID 0000.0001) > runoff_nlon       = 360,
(PID.TID 0000.0001) > runoff_nlat       = 180,
(PID.TID 0000.0001) > &
(PID.TID 0000.0001) >#
(PID.TID 0000.0001) > &EXF_NML_OBCS
(PID.TID 0000.0001) >  obcsSstartdate1   = 20021215,
(PID.TID 0000.0001) >  obcsSstartdate2   = 060000,
(PID.TID 0000.0001) >  obcsSperiod       = 2629800.0,
(PID.TID 0000.0001) >#
(PID.TID 0000.0001) >  obcsNstartdate1   = 20021215,
(PID.TID 0000.0001) >  obcsNstartdate2   = 060000,
(PID.TID 0000.0001) >  obcsNperiod       = 2629800.0,
(PID.TID 0000.0001) >#
(PID.TID 0000.0001) >  obcsEstartdate1   = 20021215,
(PID.TID 0000.0001) >  obcsEstartdate2   = 060000,
(PID.TID 0000.0001) >  obcsEperiod       = 2629800.0,
(PID.TID 0000.0001) >#
(PID.TID 0000.0001) >  obcsWstartdate1   = 20021215,
(PID.TID 0000.0001) >  obcsWstartdate2   = 060000,
(PID.TID 0000.0001) >  obcsWperiod       = 2629800.0,
(PID.TID 0000.0001) > &
(PID.TID 0000.0001) 
(PID.TID 0000.0001) EXF_READPARMS: reading EXF_NML_01
(PID.TID 0000.0001) EXF_READPARMS: reading EXF_NML_02
(PID.TID 0000.0001) EXF_READPARMS: reading EXF_NML_03
(PID.TID 0000.0001) EXF_READPARMS: reading EXF_NML_04
(PID.TID 0000.0001) EXF_READPARMS: reading EXF_NML_OBCS
(PID.TID 0000.0001) EXF_READPARMS: finished reading data.exf
(PID.TID 0000.0001)  OBCS_READPARMS: opening data.obcs
(PID.TID 0000.0001)  OPEN_COPY_DATA_FILE: opening file data.obcs
(PID.TID 0000.0001) // =======================================================
(PID.TID 0000.0001) // Parameter file "data.obcs"
(PID.TID 0000.0001) // =======================================================
(PID.TID 0000.0001) ># ***************
(PID.TID 0000.0001) ># Open boundaries
(PID.TID 0000.0001) ># ***************
(PID.TID 0000.0001) > &OBCS_PARM01
(PID.TID 0000.0001) >OB_Jnorth = 1080*537, 540*0,
(PID.TID 0000.0001) >OB_Jsouth = 1080*8, 540*0,
(PID.TID 0000.0001) >OB_Ieast = 540*0, 1080*533,
(PID.TID 0000.0001) >OB_Iwest = 540*0, 1080*4,
(PID.TID 0000.0001) >#
(PID.TID 0000.0001) > useOBCSprescribe=.TRUE.,
(PID.TID 0000.0001) ># useOBCSsponge=.true.,
(PID.TID 0000.0001) > OBCS_monSelect = 3,
(PID.TID 0000.0001) ># >0: use 1rst O. upwind adv-scheme @ OB (=1: only if outflow)
(PID.TID 0000.0001) > OBCS_u1_adv_T = 1,
(PID.TID 0000.0001) > OBCS_u1_adv_S = 1,
(PID.TID 0000.0001) >#
(PID.TID 0000.0001) > OBSsFile='OBSs_1620x100x26.bin',
(PID.TID 0000.0001) > OBStFile='OBSt_1620x100x26.bin',
(PID.TID 0000.0001) > OBSuFile='OBSu_1620x100x26.bin',
(PID.TID 0000.0001) > OBSvFile='OBSv_1620x100x26.bin',
(PID.TID 0000.0001) >#
(PID.TID 0000.0001) > OBNsFile='OBNs_1620x100x26.bin',
(PID.TID 0000.0001) > OBNtFile='OBNt_1620x100x26.bin',
(PID.TID 0000.0001) > OBNuFile='OBNu_1620x100x26.bin',
(PID.TID 0000.0001) > OBNvFile='OBNv_1620x100x26.bin',
(PID.TID 0000.0001) >#
(PID.TID 0000.0001) > OBEsFile='OBEs_1620x100x26.bin',
(PID.TID 0000.0001) > OBEtFile='OBEt_1620x100x26.bin',
(PID.TID 0000.0001) > OBEuFile='OBEu_1620x100x26.bin',
(PID.TID 0000.0001) > OBEvFile='OBEv_1620x100x26.bin',
(PID.TID 0000.0001) >#
(PID.TID 0000.0001) > OBWsFile='OBWs_1620x100x26.bin',
(PID.TID 0000.0001) > OBWtFile='OBWt_1620x100x26.bin',
(PID.TID 0000.0001) > OBWuFile='OBWu_1620x100x26.bin',
(PID.TID 0000.0001) > OBWvFile='OBWv_1620x100x26.bin',
(PID.TID 0000.0001) ># Balancing
(PID.TID 0000.0001) > useOBCSbalance = .TRUE.,
(PID.TID 0000.0001) > OBCS_balanceFacN = -1,
(PID.TID 0000.0001) > OBCS_balanceFacS = -1,
(PID.TID 0000.0001) > OBCS_balanceFacE = -1,
(PID.TID 0000.0001) > OBCS_balanceFacW = -1,
(PID.TID 0000.0001) >## *****************************************
(PID.TID 0000.0001) >## Tidal BC parameters
(PID.TID 0000.0001) >## *****************************************
(PID.TID 0000.0001) > useOBCStides = .TRUE.,
(PID.TID 0000.0001) >##components   = M2       S2     N2       K2       K1      O1       P1       Q1       Mf         Mm
(PID.TID 0000.0001) >##periods (hr) = 12.4206  12     12.6583  11.9672  23.9345 25.8193  24.0659  26.8684  327.8599   661.31
(PID.TID 0000.0001) >##period(sec)  = 44714.165 43200.001 45570.054 43082.05 86164.077 92949.636 86637.2 96726.086 1180295.5 2380715.9
(PID.TID 0000.0001) >##components      m2        s2        n2        k2        k1        o1        p1        q1        mf        mm        m4        ms4       mn4
(PID.TID 0000.0001) >##period (hr): 12.420601 12.000000 12.658348 11.967236 23.934466 25.819343 24.065889 26.868357 327.859874 661.309962 6.210303 6.103339 6.269178
(PID.TID 0000.0001) >##period (s):  44714.165192 43200.001287 45570.053512 43082.050319 86164.077005 92949.635701 86637.199772 96726.085703 1180295.545550 2380715.863587 22357.090551 21972.021930 22569.042448
(PID.TID 0000.0001) > tidalPeriod  = 44714.165 43200.001 45570.054 43082.050 86164.077 92949.636 86637.200 96726.086 1180295.546 2380715.864 22357.091 21972.022 22569.042,
(PID.TID 0000.0001) > OBSamFile='OBSam_1620x13.bin',
(PID.TID 0000.0001) > OBNamFile='OBNam_1620x13.bin',
(PID.TID 0000.0001) > OBWamFile='OBWam_1620x13.bin',
(PID.TID 0000.0001) > OBEamFile='OBEam_1620x13.bin',
(PID.TID 0000.0001) > OBSphFile='OBSph_1620x13.bin',
(PID.TID 0000.0001) > OBNphFile='OBNph_1620x13.bin',
(PID.TID 0000.0001) > OBWphFile='OBWph_1620x13.bin',
(PID.TID 0000.0001) > OBEphFile='OBEph_1620x13.bin',
(PID.TID 0000.0001) > &
(PID.TID 0000.0001) ># *****************************************
(PID.TID 0000.0001) ># Sponge Layer Parameters.
(PID.TID 0000.0001) ># *****************************************
(PID.TID 0000.0001) > &OBCS_PARM03
(PID.TID 0000.0001) ># Urelaxobcsinner=2629800.E0,
(PID.TID 0000.0001) ># Urelaxobcsbound=43200.E0,
(PID.TID 0000.0001) >#
(PID.TID 0000.0001) ># Vrelaxobcsinner=2629800.E0,
(PID.TID 0000.0001) ># Vrelaxobcsbound=43200.E0,
(PID.TID 0000.0001) >#
(PID.TID 0000.0001) ># spongeThickness=16,
(PID.TID 0000.0001) > &
(PID.TID 0000.0001) 
(PID.TID 0000.0001)  OBCS_READPARMS: finished reading data.obcs
(PID.TID 0000.0001)  OB_indexUnset = /* unset OB index value (i.e. no OB) */
(PID.TID 0000.0001)                       0
(PID.TID 0000.0001)     ;
(PID.TID 0000.0001)  Northern OB global indices : OB_Jnorth =
(PID.TID 0000.0001)  1080 @      537,                           /* I =   1:1080 */
(PID.TID 0000.0001)   540 @        0                            /* I =***:*** */
(PID.TID 0000.0001)  Southern OB global indices : OB_Jsouth =
(PID.TID 0000.0001)  1080 @        8,                           /* I =   1:1080 */
(PID.TID 0000.0001)   540 @        0                            /* I =***:*** */
(PID.TID 0000.0001)  Eastern  OB global indices : OB_Ieast =
(PID.TID 0000.0001)   540 @        0,                           /* J =   1: 540 */
(PID.TID 0000.0001)  1080 @      533                            /* J =541:*** */
(PID.TID 0000.0001)  Western  OB global indices : OB_Iwest =
(PID.TID 0000.0001)   540 @        0,                           /* J =   1: 540 */
(PID.TID 0000.0001)  1080 @        4                            /* J =541:*** */
(PID.TID 0000.0001) 
(PID.TID 0000.0001)  KPP_READPARMS: opening data.kpp
(PID.TID 0000.0001)  OPEN_COPY_DATA_FILE: opening file data.kpp
(PID.TID 0000.0001) // =======================================================
(PID.TID 0000.0001) // Parameter file "data.kpp"
(PID.TID 0000.0001) // =======================================================
(PID.TID 0000.0001) ># KPP parameters
(PID.TID 0000.0001) > &KPP_PARM01
(PID.TID 0000.0001) >### KPPmixingMaps   = .FALSE.,
(PID.TID 0000.0001) >### KPPwriteState   = .FALSE.,
(PID.TID 0000.0001) >### kpp_dumpFreq    = 0.,
(PID.TID 0000.0001) >### kpp_tavefreq    = 0.,
(PID.TID 0000.0001) >### Ricr            = 0.3559,
(PID.TID 0000.0001) >### Riinfty         = 0.6998,
(PID.TID 0000.0001) > &
(PID.TID 0000.0001) 
(PID.TID 0000.0001)  KPP_READPARMS ; starts to read KPP_PARM01
(PID.TID 0000.0001)  KPP_READPARMS ; read KPP_PARM01 : OK
(PID.TID 0000.0001)  KPP_READPARMS: finished reading data.kpp
(PID.TID 0000.0001)  DIAGNOSTICS_READPARMS: opening data.diagnostics
(PID.TID 0000.0001)  OPEN_COPY_DATA_FILE: opening file data.diagnostics
(PID.TID 0000.0001) // =======================================================
(PID.TID 0000.0001) // Parameter file "data.diagnostics"
(PID.TID 0000.0001) // =======================================================
(PID.TID 0000.0001) ># Diagnostic Package Choices
(PID.TID 0000.0001) >#-----------------
(PID.TID 0000.0001) ># for each output-stream:
(PID.TID 0000.0001) >#  filename(n) : prefix of the output file name (only 8.c long) for outp.stream n
(PID.TID 0000.0001) >#  frequency(n):< 0 : write snap-shot output every multiple of |frequency| (iter)
(PID.TID 0000.0001) >#               > 0 : write time-average output every multiple of frequency (iter)
(PID.TID 0000.0001) >#  levels(:,n) : list of levels to write to file (Notes: declared as REAL)
(PID.TID 0000.0001) >#                 when this entry is missing, select all common levels of this list
(PID.TID 0000.0001) >#  fields(:,n) : list of diagnostics fields (8.c) (see "available_diagnostics" file
(PID.TID 0000.0001) >#                 for the list of all available diag. in this particular config)
(PID.TID 0000.0001) >#--------------------------------------------------------------------
(PID.TID 0000.0001) >#
(PID.TID 0000.0001) > &diagnostics_list
(PID.TID 0000.0001) >#
(PID.TID 0000.0001) >   dumpatlast = .TRUE.,
(PID.TID 0000.0001) >#
(PID.TID 0000.0001) >#---
(PID.TID 0000.0001) >  frequency(1) = 3600.0,
(PID.TID 0000.0001) >   fields(1:5,1) = 'ETAN', 'oceTAUX', 'oceTAUY', 'EXFuwind', 'EXFvwind',
(PID.TID 0000.0001) >   filename(1) = 'diags/surface',
(PID.TID 0000.0001) >#---
(PID.TID 0000.0001) >  frequency(2) = 3600.0,
(PID.TID 0000.0001) >   fields(1:5,2) = 'THETA', 'SALT', 'UVEL', 'VVEL', 'WVEL',
(PID.TID 0000.0001) >   filename(2) = 'diags/interior',
(PID.TID 0000.0001) >#   levels(1:55,2) =  1., 2., 3., 4., 5., 6., 7., 8., 9.,10.,11.,13.,15.,
(PID.TID 0000.0001) >#                     17.,19.,21.,23.,25.,27.,29.,31.,33.,35.,37.,39.,41.,43.,45.,
(PID.TID 0000.0001) >#                     47.,49.,51.,53.,55.,57.,59.,61.,63.,65.,67.,69.,71.,73.,75.,
(PID.TID 0000.0001) >#                     77.,79.,81.,83.,85.,87.,89.,91.,93.,95.,97.,99.,
(PID.TID 0000.0001) > /
(PID.TID 0000.0001) >#
(PID.TID 0000.0001) >#
(PID.TID 0000.0001) ># Parameter for Diagnostics of per level statistics:
(PID.TID 0000.0001) >#-----------------
(PID.TID 0000.0001) ># for each output-stream:
(PID.TID 0000.0001) >#  stat_fname(n) : prefix of the output file name (only 8.c long) for outp.stream n
(PID.TID 0000.0001) >#  stat_freq(n):< 0 : write snap-shot output every |stat_freq| seconds
(PID.TID 0000.0001) >#               > 0 : write time-average output every stat_freq seconds
(PID.TID 0000.0001) >#  stat_phase(n)    : write at time = stat_phase + multiple of |stat_freq|
(PID.TID 0000.0001) >#  stat_region(:,n) : list of "regions" (default: 1 region only=global)
(PID.TID 0000.0001) >#  stat_fields(:,n) : list of diagnostics fields (8.c) (see "available_diagnostics.log"
(PID.TID 0000.0001) >#                 file for the list of all available diag. in this particular config)
(PID.TID 0000.0001) >#-----------------
(PID.TID 0000.0001) > &DIAG_STATIS_PARMS
(PID.TID 0000.0001) ># diagSt_regMaskFile='basin_masks_eccollc_90x50.bin',
(PID.TID 0000.0001) ># nSetRegMskFile=1,
(PID.TID 0000.0001) ># set_regMask(1)= 1,  1,  1,  1,  1,  1,  1,  1,  1,
(PID.TID 0000.0001) >#                 1,  1,  1,  1,  1,  1,  1,  1
(PID.TID 0000.0001) ># val_regMask(1)= 1., 2., 3., 4., 5., 6., 7., 8., 9.,
(PID.TID 0000.0001) >#                10.,11.,12.,13.,14.,15.,16.,17.
(PID.TID 0000.0001) >##---
(PID.TID 0000.0001) ># stat_fields(1,1)= 'ETAN    ','ETANSQ  ','DETADT2 ',
(PID.TID 0000.0001) >#                   'UVEL    ','VVEL    ','WVEL    ',
(PID.TID 0000.0001) >#                   'THETA   ','SALT    ',
(PID.TID 0000.0001) >#    stat_fname(1)= 'dynStDiag',
(PID.TID 0000.0001) >#     stat_freq(1)= 3153600.,
(PID.TID 0000.0001) ># stat_region(1,1)=  1, 2, 3, 4, 5, 6, 7, 8, 9,
(PID.TID 0000.0001) >#                   10,11,12,13,14,15,16,17
(PID.TID 0000.0001) >##---
(PID.TID 0000.0001) ># stat_fields(1,2)= 'oceTAUX ','oceTAUY ',
(PID.TID 0000.0001) >#                   'surForcT','surForcS','TFLUX   ','SFLUX   ',
(PID.TID 0000.0001) >#                   'oceQnet ','oceSflux','oceFWflx',
(PID.TID 0000.0001) >#    stat_fname(2)= 'surfStDiag',
(PID.TID 0000.0001) >#     stat_freq(2)= 3153600.,
(PID.TID 0000.0001) ># stat_region(1,2)=  1, 2, 3, 4, 5, 6, 7, 8, 9,
(PID.TID 0000.0001) >#                   10,11,12,13,14,15,16,17
(PID.TID 0000.0001) > /
(PID.TID 0000.0001) 
(PID.TID 0000.0001) S/R DIAGNOSTICS_READPARMS, read namelist "diagnostics_list": start
(PID.TID 0000.0001) S/R DIAGNOSTICS_READPARMS, read namelist "diagnostics_list": OK
(PID.TID 0000.0001) S/R DIAGNOSTICS_READPARMS, read namelist "DIAG_STATIS_PARMS": start
(PID.TID 0000.0001) S/R DIAGNOSTICS_READPARMS, read namelist "DIAG_STATIS_PARMS": OK
(PID.TID 0000.0001)  DIAGNOSTICS_READPARMS: global parameter summary:
(PID.TID 0000.0001)  dumpAtLast = /* always write time-ave diags at the end */
(PID.TID 0000.0001)                   T
(PID.TID 0000.0001)     ;
(PID.TID 0000.0001)  diag_mnc =   /* write NetCDF output files */
(PID.TID 0000.0001)                   F
(PID.TID 0000.0001)     ;
(PID.TID 0000.0001)  useMissingValue = /* put MissingValue where mask = 0 */
(PID.TID 0000.0001)                   F
(PID.TID 0000.0001)     ;
(PID.TID 0000.0001)  diagCG_maxIters = /* max number of iters in diag_cg2d */
(PID.TID 0000.0001)                    1000
(PID.TID 0000.0001)     ;
(PID.TID 0000.0001)  diagCG_resTarget = /* residual target for diag_cg2d */
(PID.TID 0000.0001)                 1.000000000000000E-07
(PID.TID 0000.0001)     ;
(PID.TID 0000.0001)  diagCG_pcOffDFac = /* preconditioner off-diagonal factor */
(PID.TID 0000.0001)                 9.611687812379854E-01
(PID.TID 0000.0001)     ;
(PID.TID 0000.0001) -----------------------------------------------------
(PID.TID 0000.0001)  DIAGNOSTICS_READPARMS: active diagnostics summary:
(PID.TID 0000.0001) -----------------------------------------------------
(PID.TID 0000.0001) Creating Output Stream: diags/surface
(PID.TID 0000.0001) Output Frequency:       3600.000000 ; Phase:           0.000000
(PID.TID 0000.0001)  Averaging Freq.:       3600.000000 , Phase:           0.000000 , Cycle:   1
(PID.TID 0000.0001)  missing value: -9.990000000000E+02
(PID.TID 0000.0001)  Levels:    will be set later
(PID.TID 0000.0001)  Fields:    ETAN     oceTAUX  oceTAUY  EXFuwind EXFvwind
(PID.TID 0000.0001) Creating Output Stream: diags/interior
(PID.TID 0000.0001) Output Frequency:       3600.000000 ; Phase:           0.000000
(PID.TID 0000.0001)  Averaging Freq.:       3600.000000 , Phase:           0.000000 , Cycle:   1
(PID.TID 0000.0001)  missing value: -9.990000000000E+02
(PID.TID 0000.0001)  Levels:    will be set later
(PID.TID 0000.0001)  Fields:    THETA    SALT     UVEL     VVEL     WVEL
(PID.TID 0000.0001) -----------------------------------------------------
(PID.TID 0000.0001)  DIAGNOSTICS_READPARMS: statistics diags. summary:
(PID.TID 0000.0001) -----------------------------------------------------
(PID.TID 0000.0001) 
(PID.TID 0000.0001) SET_PARMS: done
(PID.TID 0000.0001) Enter INI_VERTICAL_GRID: setInterFDr=    T ; setCenterDr=    F
(PID.TID 0000.0001) tile:   1 ; Read from file tile001.mitgrid
(PID.TID 0000.0001)   => xC yC dxF dyF rA xG yG dxV dyU rAz dxC dyC rAw rAs dxG dyG
(PID.TID 0000.0001) %MON XC_max                       =  -4.2708333333333E+00
(PID.TID 0000.0001) %MON XC_min                       =  -8.2979166666667E+01
(PID.TID 0000.0001) %MON XC_mean                      =  -4.3656779661017E+01
(PID.TID 0000.0001) %MON XC_sd                        =   2.1416784662794E+01
(PID.TID 0000.0001) %MON XG_max                       =  -4.2916666666667E+00
(PID.TID 0000.0001) %MON XG_min                       =  -8.3000000000000E+01
(PID.TID 0000.0001) %MON XG_mean                      =  -4.3677612994350E+01
(PID.TID 0000.0001) %MON XG_sd                        =   2.1416784662794E+01
(PID.TID 0000.0001) %MON DXC_max                      =   4.1396407771681E+03
(PID.TID 0000.0001) %MON DXC_min                      =   3.1250655537105E+03
(PID.TID 0000.0001) %MON DXC_mean                     =   3.6037673106849E+03
(PID.TID 0000.0001) %MON DXC_sd                       =   2.4914041926297E+02
(PID.TID 0000.0001) %MON DXF_max                      =   4.1396407771687E+03
(PID.TID 0000.0001) %MON DXF_min                      =   3.1257281057051E+03
(PID.TID 0000.0001) %MON DXF_mean                     =   3.6041299665782E+03
(PID.TID 0000.0001) %MON DXF_sd                       =   2.4895595026445E+02
(PID.TID 0000.0001) %MON DXG_max                      =   4.1402617068725E+03
(PID.TID 0000.0001) %MON DXG_min                      =   3.1257281057058E+03
(PID.TID 0000.0001) %MON DXG_mean                     =   3.6044367253935E+03
(PID.TID 0000.0001) %MON DXG_sd                       =   2.4913620976209E+02
(PID.TID 0000.0001) %MON DXV_max                      =   4.1402617068725E+03
(PID.TID 0000.0001) %MON DXV_min                      =   3.1250655537105E+03
(PID.TID 0000.0001) %MON DXV_mean                     =   3.6040740695002E+03
(PID.TID 0000.0001) %MON DXV_sd                       =   2.4932099159289E+02
(PID.TID 0000.0001) %MON YC_max                       =   4.3512572127093E+01
(PID.TID 0000.0001) %MON YC_min                       =   2.6667172344766E+01
(PID.TID 0000.0001) %MON YC_mean                      =   3.5202184999450E+01
(PID.TID 0000.0001) %MON YC_sd                        =   4.8166811048475E+00
(PID.TID 0000.0001) %MON YG_max                       =   4.3526628017801E+01
(PID.TID 0000.0001) %MON YG_min                       =   2.6650055290879E+01
(PID.TID 0000.0001) %MON YG_mean                      =   3.5204597649593E+01
(PID.TID 0000.0001) %MON YG_sd                        =   4.8161011946804E+00
(PID.TID 0000.0001) %MON DYC_max                      =   4.1396407771681E+03
(PID.TID 0000.0001) %MON DYC_min                      =   3.1263906594436E+03
(PID.TID 0000.0001) %MON DYC_mean                     =   3.6495104045127E+03
(PID.TID 0000.0001) %MON DYC_sd                       =   2.5947805112709E+02
(PID.TID 0000.0001) %MON DYF_max                      =   4.1396407771687E+03
(PID.TID 0000.0001) %MON DYF_min                      =   3.1257281057065E+03
(PID.TID 0000.0001) %MON DYF_mean                     =   3.6492429901036E+03
(PID.TID 0000.0001) %MON DYF_sd                       =   2.5966646178032E+02
(PID.TID 0000.0001) %MON DYG_max                      =   4.1390195697792E+03
(PID.TID 0000.0001) %MON DYG_min                      =   3.1257281057058E+03
(PID.TID 0000.0001) %MON DYG_mean                     =   3.6488274159552E+03
(PID.TID 0000.0001) %MON DYG_sd                       =   2.5948422250146E+02
(PID.TID 0000.0001) %MON DYU_max                      =   4.1390195697805E+03
(PID.TID 0000.0001) %MON DYU_min                      =   3.1263906594436E+03
(PID.TID 0000.0001) %MON DYU_mean                     =   3.6490948303644E+03
(PID.TID 0000.0001) %MON DYU_sd                       =   2.5929610801441E+02
(PID.TID 0000.0001) %MON RA_max                       =   1.5754564649722E+07
(PID.TID 0000.0001) %MON RA_min                       =   1.0500948212213E+07
(PID.TID 0000.0001) %MON RA_mean                      =   1.3175496851859E+07
(PID.TID 0000.0001) %MON RA_sd                        =   1.5117950743597E+06
(PID.TID 0000.0001) %MON RAW_max                      =   1.5754564640712E+07
(PID.TID 0000.0001) %MON RAW_min                      =   1.0496276813784E+07
(PID.TID 0000.0001) %MON RAW_mean                     =   1.3172687163218E+07
(PID.TID 0000.0001) %MON RAW_sd                       =   1.5117190300960E+06
(PID.TID 0000.0001) %MON RAS_max                      =   1.5759254554448E+07
(PID.TID 0000.0001) %MON RAS_min                      =   1.0500948221223E+07
(PID.TID 0000.0001) %MON RAS_mean                     =   1.3177563200865E+07
(PID.TID 0000.0001) %MON RAS_sd                       =   1.5117312562591E+06
(PID.TID 0000.0001) %MON RAZ_max                      =   1.5759254554448E+07
(PID.TID 0000.0001) %MON RAZ_min                      =   1.0496276849823E+07
(PID.TID 0000.0001) %MON RAZ_mean                     =   1.3174753512224E+07
(PID.TID 0000.0001) %MON RAZ_sd                       =   1.5116590494693E+06
(PID.TID 0000.0001) %MON AngleCS_max                  =   1.0000000000000E+00
(PID.TID 0000.0001) %MON AngleCS_min                  =  -6.9859794131994E-13
(PID.TID 0000.0001) %MON AngleCS_mean                 =   4.2372881355932E-01
(PID.TID 0000.0001) %MON AngleCS_sd                   =   4.9414846566485E-01
(PID.TID 0000.0001) %MON AngleSN_max                  =   6.9859794131994E-13
(PID.TID 0000.0001) %MON AngleSN_min                  =  -1.0000000000000E+00
(PID.TID 0000.0001) %MON AngleSN_mean                 =  -5.7627118644068E-01
(PID.TID 0000.0001) %MON AngleSN_sd                   =   4.9414846566487E-01
(PID.TID 0000.0001)  MDS_READ_FIELD: opening global file: bathy.bin
(PID.TID 0000.0001) // =======================================================
(PID.TID 0000.0001) // Field Model R_low (ini_masks_etc)
(PID.TID 0000.0001) // CMIN =         -5.853495605468750E+03
(PID.TID 0000.0001) // CMAX =         -3.155474000000000E+03
(PID.TID 0000.0001) // CINT =          9.992672612847224E+01
(PID.TID 0000.0001) // SYMBOLS (CMIN->CMAX): -abcdefghijklmnopqrstuvwxyz+
(PID.TID 0000.0001) //                  0.0: .
(PID.TID 0000.0001) // RANGE I (Lo:Hi:Step):(    -7:    98:     1)
(PID.TID 0000.0001) // RANGE J (Lo:Hi:Step):(    98:    -7:    -1)
(PID.TID 0000.0001) // RANGE K (Lo:Hi:Step):(   1:   1:   1)
(PID.TID 0000.0001) // =======================================================
(PID.TID 0000.0001) K =   1
(PID.TID 0000.0001) //                I=2       I=12      I=22      I=32      I=42      I=52      I=62      I=72      I=82      I=92
(PID.TID 0000.0001) // |--J--|765432101|345678901|345678901|345678901|345678901|345678901|345678901|345678901|345678901|345678901|345678
(PID.TID 0000.0001) //     98 qrrssuvvutuuvvwwwwwx+yxwxxyxvtsssrppqsssssqqqqttrppqoprrqrtuusmkmppprqomlmmlmonljkkkjjiijjhhilnokklkkkllll
(PID.TID 0000.0001) //     97 oppqrtttsstttuvvvvwyyvwxyxyxvuuuutrsvwutuurqqrtsnmpupqssqrtvvqljlonnqqomlmmlmnnmlkkjkkjiiihhikmnlllkkklmmm
(PID.TID 0000.0001) //     96 nnooprrqppsstuvuuuvwwtuwyxxxvuvwwusuwwutuurqqsrpllpvoqsqopruwpjjkomlqpnlloomlmmmnmkkkmljihhhijlllmnljkmnmm
(PID.TID 0000.0001) //     95 onnnoooonopqsttttttuuttuwxwvuuvwwvuuutsstsrqpqpomnprppqnmnoquojjknlkonllmppnllllnolllmnkihhhiikjkmoljkmqnl
(PID.TID 0000.0001) //     94 pnnnnnnnnnoostsrsssststtvxwuttuvvuttsrrrrqpopponmnppnmmlklmmomkkklllmlklmnonljjknomonnmjhihhikkjjmnljklonl
(PID.TID 0000.0001) //     93 sppponnnnnnoqrqqsssrtsttvvuttttuutsrqppqqpoooonmmnpomlkjjlllmmllllllllkmmmnnljijmmloonjhiihijklkkllkjkkmml
(PID.TID 0000.0001) //     92 vttsqonnnnnnppopqssqsststtssttsttsqpooopqpooonnllmpolkkjjlmlmmmlkkllljjmmmnnmkiiikklnmihjkijlmmlkkkihklllj
(PID.TID 0000.0001) //     91 yxwvtqponnnnnnnoooqprssrrsrrssrtrqooonnpqppoonnlklpmkllkkkllmmmllkllljijklmmmljiikkjkjhijlkkmnnmlkjggjlmki
(PID.TID 0000.0001) //     90 zzyxusrrppponnnnnnoopqrqqqpqrrrtponoonoqrponnnnkjlnkkmmmklllmmnnnlllmljijklmmmlkmllkjjiiijklnonnkjjhhknoki
(PID.TID 0000.0001) //     89 yyyywuuutsspnnnnnnnnnopoooopqqqronoopoopqpononmkklmklnnmlllllmmnpmmmnmlkjjkllmmkmllkjjjiiijkmnmnliihjmpqlj
(PID.TID 0000.0001) //     88 xxxxwvvwvuvrooppponnnoonnmnooopponoopqqpoonpqmmllmlkmmmllllkkllmnnonnnmmjjjkllkjlkkkkjkjiiijklklmjjjloqqnl
(PID.TID 0000.0001) //     87 xwwwwwwxwuwtrrsttpnnooonmmnnnnnnnnooqsronmlqqnnnnmlkmnnmllkkkkkkmnnponnljjjkmlhijjkllkkjihiijjjjlkklnpqpom
(PID.TID 0000.0001) //     86 wvwvvwxyuuvvuuvwwsqqrqponnoonnnooooprsqnpnlopoooomlmoqrpmllkklkmpmjpnmomjlllpnjjjjlmmlkjiiiiijkkkkklnpqpon
(PID.TID 0000.0001) //     85 uvvuuvwwuuvvwxyxxvvuutsrrpqpppppppppqpmlromnpppponmnqssqnlkjkmklnljpllnlimlkqqokijklnmkjiiijjjkkkkkkmoppoo
(PID.TID 0000.0001) //     84 tutsstuuttuvwxyxxxwwwvttutrrrssrqpoppollplmnopponnnorstqnlkjjmmljijmlllkikkilpqkhjjjnlkiiijjljjklkjjlnoooo
(PID.TID 0000.0001) //     83 qssrqrrrrstuvwxwxwvvwvuuutrstuutrpoopnmlollnnnnnmmnpqrsqnljjjknlihhjllkjhhkkimojhiijmjiiijjjljilmkjjlmnnnn
(PID.TID 0000.0001) //     82 oqpopqqppqrsstvvvvvvvvuttsruuvvuponorqonnnoonmmlllmpppponliijlpkhijjlmkihhijimnjiiikkiijjklkjjjnnkiimnonmn
(PID.TID 0000.0001) //     81 ooooopqoopqqqrttuuuvttsrtssttvwvoomqwuqoprsqmlmkkllpomllnljjmoojjjmlmmkjjihlmnokijjllkkllmmmklknmkijoponmn
(PID.TID 0000.0001) //     80 nnnnooonnoooprsrssttrrqprrrsstuuonmrwvtrsuusnllkkllonlklnmllnoomlkmmmmllonknoonkijkmmmnnnopoopmmmkjkpqommo
(PID.TID 0000.0001) //     79 onnnnnnnnnnnnqrpqppppqpopppqrstspmnptttttttrpmjjkllmmmlmnnnnmoponllmlllmqpononnkiklnopqnnoqqqrnmlkkloqonmn
(PID.TID 0000.0001) //     78 qqonnnnnnmmlmnonnnmonpponnopqrrqpnmnqrrrrrqpomjjkklmmmlmnnnnmoponlkkkllmoomnnmmkjkmnpqronmmnoonnmkklnoonmm
(PID.TID 0000.0001) //     77 sronnonnnnnmmmmmmllmoponmlmnoppponmmnoppponnmljklkkllllmmmmomoponllmnoomnnmnmmljjkmopqqonmllllnnmlklnooonm
(PID.TID 0000.0001) //     76 onnoppppppppoonnllmnsrqnmllmnnoponmmmmmmmmmmmkjlmkkkkllmmlkmnoponmmnpsspooonmmljikmopqponmmllmnnmlllnooonm
(PID.TID 0000.0001) //     75 mlmopqrqqsrrsrqqonruxvrpommmmmnoonnnmllllllllkjklkjjkklmmkikmooooonmnssqpponmmliiknoqqponmmmmmmlmlllnonnml
(PID.TID 0000.0001) //     74 llmoooponsrsutstsquxwvtssnnoonmnoooonmllkllllkkklkjjkkkkkkjkmnooooommoqqpponmmmiiknpqqpponnmmmkkllllmnmlkj
(PID.TID 0000.0001) //     73 mnoonmmllopqssqssqsvtuuwuopqspnppppponnmlmmlllkkkkkkkkkkijjlmnnnnonmmmoppponnmljjknpqqqponmmlkjjklkjlljjih
(PID.TID 0000.0001) //     72 pqqnnljjjllmnnnoonpqqsuuroqsvrsurpqqpopommmllllkkkklmmlkiijlmmmmnnnmmnoppponnlimljlnprqpnmllkihijkkjjihhhg
(PID.TID 0000.0001) //     71 rrpmligghiihijklkklmnopponprtrsusqqqonqqnmnllllkjklmonkjiikmnmllmnnnmnoopppookhllkkloqpnlkjjjhghijkjhggggh
(PID.TID 0000.0001) //     70 rqomljgfhihghjkljjiikllllklnrqqrrrqpomoqpprolllkjlllmmljkjlmnmkklmmmnnonnooppkhikkjilnmljhhhhggggjjihggghi
(PID.TID 0000.0001) //     69 rqponlkjkljikmnnmkjiiiiiiiiimnnopponnmnoqqspkijklklkkmmmllllnmjiklllmnmllmnooifghihhhijihfeffeefeijjihggij
(PID.TID 0000.0001) //     68 rqqqpoonopnmnqrrpnmlkjhhihggijklmmmllklmnmllgfhjmkkkjllllkkjmmigijjjjkjiikllkedfffgfffggfeeedcddeikkkihhjk
(PID.TID 0000.0001) //     67 qqqqqqrspqpoprssrqpomkjjklihiijkkkkkkjkkkjhgedfikhhjhlkihhhgjjgfhhhhggffgiihfccddddddfggfffgfdefgkmmlkiijl
(PID.TID 0000.0001) //     66 pqppppqqmoonnpqrrqpommlmnpnkkkkkjjjkkkkkkjigfefhgeghgihfddddeeddffefddddfigecbcccccdefghghijiegiknonnljijk
(PID.TID 0000.0001) //     65 pponnnonlmmlklnpqpomlmnnoqpnnnnmkkklmlllmmmliiikigjhggfedddedcdeddddddddgihdccceedeefhiijkmmkijloppoomjjjk
(PID.TID 0000.0001) //     64 oonmlmnlkkjjiikmnomkkmopnopooppomlmnnnnnoppnllmomkkigfghhiijiefgedeffhghjkkhhgfjighhiikklnooomloqrqnnmkkkl
(PID.TID 0000.0001) //     63 nnmlklmljjihhhikmmljkmoqoooopqrqponooooopqpnmnoqnlkkihikmmmmkiiigfghhjikponmmmlnmjkkklnnopqqqonpqrpmmllllm
(PID.TID 0000.0001) //     62 nnmlkklkkjihhhijlllkkmnqpnnnoqssrqpppqqpopollppomllljjknonmmkkkkihhhjjkmqpmoopppommnooqqqqqrrpnommlllmmmmm
(PID.TID 0000.0001) //     61 nnmllllkkkjihiijkllkmnnoonnnoqrssrqpqrrpnnmlmrqommmmkklopomllllljjjjlmmmoomooqqrqooprssrqppponnljijklmmmml
(PID.TID 0000.0001) //     60 nnmllllllkjiijkkklllnponnnnnoprssrpooqrpmllmorrpnmmmlllnpqpmllmlkklmnnnooonopqqrrpoprtsppomkjjnlkkjjknnmll
(PID.TID 0000.0001) //     59 onnmmmmllljiikllllllmponnnnnopqqqonmlopnlkkloqqommmmlllmoppnmmmmllmnnmnponnppppqrnmmnonjjgeddfmlkkjijmnmmk
(PID.TID 0000.0001) //     58 ooonnonmlljijklmlllllnnmmmmnopppnmlkjlnmkijlmnnmllllllllmoonmmmmlmnoommoomnnoonpqjhihfgd---aadmnlkjjknnnnk
(PID.TID 0000.0001) //     57 noooppppnmkjklmmmmmnmnnmmllmnoonlkjjjlmlkjjklllkkkllmlllmnonmmmlllmnolmoommmnnnnlddgdacbaaabdhnnnlklnmlmmj
(PID.TID 0000.0001) //     56 nnnopqrrpnmklmnnmmnoonnnmlllnnnmkijjklllljjkkkjjkllmmmllmnnnlllllklmnlmnnnnmmnlkhcfjdcdddddeglmmnkkklkklkj
(PID.TID 0000.0001) //     55 nnnnopqqqonmlmnnmmnoooonmlllmmmlkjjjkllllkkkjjjjklmmnnmllmmmlkkkkkklmllnonmmmmlkjilnihggggfffhkllkkkjklmjj
(PID.TID 0000.0001) //     54 nmmmnoopponmmmnmlmnoonnmmllklllmlkkkkllllkkkjjjkllmnnnmlllmlkkkjjjjklkkmonmlmnmllkmmkjjjiihgghkmmkjjjkmnkk
(PID.TID 0000.0001) //     53 nmmmnnnooonmmmmmllmnnnmlllkkkllmmlkkkllmlkkkkkkkklmnnnmllllllkkjiijklkjknmlkmmmlkjjjjjjjjjiiijknmljijkmnml
(PID.TID 0000.0001) //     52 nmmmnnmmnnmmmmmmllnonmkkkkkklllmllkkllmnnlkkkllkklmnnmmlkkkllllkjijkkkiilkkklkkjjihghiijjkjjjjjmmlkjjlnnml
(PID.TID 0000.0001) //     51 nnnnnnmmlmmmmnmlklnonmkjijkkllmllkkklmoqqnmllmmlllmnnmlkkkkllmlkkhhjjihhjkkjihhihhgffhhiijkkkiilnnkjjlnmlk
(PID.TID 0000.0001) //     50 ooooooonllmnnmmllmopomkiiijllmllkjjklmosspnmmmnnlkllmmlkkjkkmmkiigfhhgffijjihfghfgggghhhhikkmkikooljjklkji
(PID.TID 0000.0001) //     49 pppooppommnnnmmllmopomkjiiklmlllkjjkklnrrpomllmmkiiklmlkjjjklmkghgfggeeeghihgfffeghiiiiggikkolikpoljiihghi
(PID.TID 0000.0001) //     48 oppnnoonmmnnnmmlmnoonllmjjklllllkjjjjklopomkjjkkjgfhjlkjihikllkffffggfeefghhghiggijkkjighjllomjjonljhgfggh
(PID.TID 0000.0001) //     47 oponmlllmnnnmmlmmmnmlklnlkkkkkllkjiijjjkllkjhijjhedfhjjigghjjjhedeefgfeeegijjkljikmnmkihijlnnmjjllkihhhjii
(PID.TID 0000.0001) //     46 ppnmkjikmnnnmmllmmmlkjkmlkkjjkllkjhhhihiiiihghhhgdcdghhgggghihfdddfffffeehlnnnomjnppnkiijkknljijjjkihhjmji
(PID.TID 0000.0001) //     45 qpnljiikmnnnmmllllllkjkkkkkkjllkjjhffgffffgggfggfdcdeggghhgggfedhligfhgeejpqqorspqrqokiijjijgfgiggjjiillii
(PID.TID 0000.0001) //     44 qpnljjlmnnmommmlllmmklkjjllllnmjhjgefffffffgffgfffefffffkkihghfflqmjhjiggkqsrortqmmpniiijjhgeefggfilmlnkhi
(PID.TID 0000.0001) //     43 qomljkpppnlplmnjnkmmlmkjjklmmonjhihghhhhiihhhhihhhiihhhimmkklmiinqomllkkjlpqpooojghkifhikkihihgggfhlnmlkhh
(PID.TID 0000.0001) //     42 onlkkmqppnmpmmnkmkmmllkjjkklmnmjhhiijjklnlkjjkkkkllljjklonmmmnllnpponlknlkmlllkkdcdeddgilnlijjihfggjlkjjhh
(PID.TID 0000.0001) //     41 nlkjloooonnnmmmlmlmllkjjiijklmlkihijjlmnonmlmmmmmnnnmmmopmmmmmnnmmppnljlljjgfhhgbccbfhjklnnkjkjihigjkhhihh
(PID.TID 0000.0001) //     40 mjjiknlmmnpnllmnllklkjiiihhjkkkmkiijjmnmnonnnnmmnnoonmnnpllmmlnnkknnmljkkifcccddcffeiklllmnlmokkjigkjffihh
(PID.TID 0000.0001) //     39 mjjijlklkmomklmolkjlmihiihhjjijllijiiknnoonnnmllmmnonmmmlkkkllmljijjjjhiihedcdehgjjjkllllmnmpqlmkihjifegij
(PID.TID 0000.0001) //     38 mkjiijjkklmlklmnlkjlmihijiijkjlklijiklnnnonmmlkjkkmnnllljjjjjkkjhgggggefgghhhiikilmmlmmmmmllnmilkihhhgeekk
(PID.TID 0000.0001) //     37 mkjijjjjjjjjjkmmlkklljijjjjklmonljihkmmnnnmlkkjiiikmlkjjjiihhiigfefffgfghikmlkkklmnmmmmmmljijjgiihhhhgeeik
(PID.TID 0000.0001) //     36 lkjjjjjiiiihijllllllljjjjkkklmonmkihiklmmmlkkjjihhikjihhhggffggfffeghiijjkmonlklmnnmmmmmmkiggihhhgghiigdej
(PID.TID 0000.0001) //     35 lkjjjjjiiiihijlllllmlkjjjjjjkkmmlkjiijjklkkjjjjjjhhihgfffffeefghihhiklllkkmonlkklmmlllllljhffhhgggghjkheeh
(PID.TID 0000.0001) //     34 mljiijiiiijjjkllkklmlkjjjihhkjkkklkjihhjjjiiiihhhggggfeeeeeeffikkkjkmnnmkklnnmkijlmllkkkjihffhhfghhijkigfh
(PID.TID 0000.0001) //     33 nmkjiiiijkkkklllkkkllkjjjiggijihhlkjihgiijhgiihggfffghffffffghjmlmmlmnmljijmnnkhikllkjiiiihffghfghiijjhhgh
(PID.TID 0000.0001) //     32 omkjijjkkllllllkkkkkkjjjjihhiihfgijiiihiiiiilkhggeefhkihggghjkklnoommllkjhiklljiikkkjihgghiffgiggiiihgghhi
(PID.TID 0000.0001) //     31 nmlkkllllllkkkkkkkkkjiijkkjjkjigghhiijjjiijkmkhgkiihjllkighjmmmmnoomlkkjigghijiiijjihgfffghghijiiiihgedfij
(PID.TID 0000.0001) //     30 mlllmnmmlkkjjkkkkkkjiiiiiijklljhghhhgijjjklnkhhhkkmjlnonkghjnnnnnnnlkkkihfefggghgghhgfeeefggijjiihhhgfdfjk
(PID.TID 0000.0001) //     29 llllnpolkkjiijjkkkkjijjihhjkmmjhhhhhgjkjjmnokiijkknlnppqnihkoooonmlkkkjigddeeeffffffffffffgggghhhgggfgegkl
(PID.TID 0000.0001) //     28 llkllmnmkjiiiijkllkjjkmmkjjknnkihhghiklihkmmkjjjklmkmnpqmiilopoonljjjjjifdddeeeeeefgfefgggggffgggffggfgiln
(PID.TID 0000.0001) //     27 lkkkjjklkjjiiijkkkkjijkmljijkljjiggijjmkijkkjiijkkljknoolijkmnnmmkiiiiihedeeghfeffgigghhhhggfffffeegffgjkn
(PID.TID 0000.0001) //     26 kkkjihhjkkkjijjkkjjiihhjkkjjjjjkjhgkhilkjiihgffgijkiilmljiiiklmlljihhghhedgefihfhhghhhiiihgfedefeeeeefhjhg
(PID.TID 0000.0001) //     25 jklkjiijkkkjjjjjjjjighgikkjjiihjjigihjlkihgfeddeghhghjkjhiiiijkjjihhgfggddghghiijjghiiijjihfddffeffffgiiff
(PID.TID 0000.0001) //     24 jlmmllkkkkkjjiijiijkhhhjkjjjhgfhhhiihjlihhgfedddegffgiihgiiihhiihgggffffceghhhihkjhijiijjihfedefgggggghhfe
(PID.TID 0000.0001) //     23 ilmnnonkjjjjiiiiihhiihikkkkkggfhhijihklfghggggeddeeefhhggiihgghggeegeddddeggfhihkhfkmijkkjifeeefhhhhhihgfe
(PID.TID 0000.0001) //     22 hklmnnmkjjjiiiiihgeeggijjjkkhgghiihgfffeghhhjkhedeedeghgghhfdegfeccdccddefhikmllkhhlmkkkmijffdefhijhhhgeef
(PID.TID 0000.0001) //     21 giklllljjjiiiiiihfdegghhhijjhghjjigffeefghijkkifeedddeedeffdcdedcbbbccdefhikmllkjijlmllllhfeefighikhggedef
(PID.TID 0000.0001) //     20 ghijjiggijihhiihggffghhjjhiihghkihgffffghiiijjjhgfdcdecbbdcbbccccbbbcdefghijjjijiijlmmlkjgcdfghgfhkiffdfhg
(PID.TID 0000.0001) //     19 hhhiigegijihhjjiffhhhjhhihiigffiiggffgghiihhhijiihedhgdbbcbbdddcddcbcefhiiiggffgghikllkjhgddfggffjjhfffhjh
(PID.TID 0000.0001) //     18 hhhhhhiijjihiklkihkijkjhghjihgfgggghhhhhhhhhhhiiigddfgfeddddffffgggdeghjjjhfffffffhjjjihhfdeghgedeffffghhf
(PID.TID 0000.0001) //     17 ihhhhhiiiihhiklihhjgljjigijihhgggghjjihggghjjghhfdcdghihgghiigghkkmihijkkjighiihffgiihgfhgffhihecdfffggfec
(PID.TID 0000.0001) //     16 hhggggffghhhijiffhhhkijiiijiiihhhijkkjgfeffhihggedefhjllklnoljijnnonmkmljhihikkiffgggfedggghijjebdfffggfdb
(PID.TID 0000.0001) //     15 ihgggffeghhhilkiihiikiijjjiiijjiijllljgeeffgihhhggggjlnnmnqqnlkmoonoomoligggjmkifeeefeeeffghiijfeffffffedb
(PID.TID 0000.0001) //     14 ihhggfedfhghkkljgghiihijjjjjjkkjklmmmlgefghiiiijiiijlmnmmnqpnllmnonnonnljjgdilhheccceeffefeikghhhggffffffe
(PID.TID 0000.0001) //     13 hhhhhhgdgggfhijhfghhhhijjjjjkklllmllnojhhijjjijklllllmmkikmmlkkklmnnonnnkifdijhgdbbacdeedfdilghjjigffeefff
(PID.TID 0000.0001) //     12 ghhiiiigigfgghihhhhhhhijkkkkkllmmmkknnljjkkjjijklllkkkjgfhiiihhijklmnnnmjgeeggffcbcbceeccgfgifhjkieeeeefff
(PID.TID 0000.0001) //     11 fhgiijkifggggghhijihhijkllkkkkmmmljkmmlkkjjjiijkkkjiihgfffgfedefghikmnmkhedeecggbbcbcgfcffdgifghigcddffegf
(PID.TID 0000.0001) //     10 egggihihhhhhhhhhjjjiijkkllkjjilmlkjklllkjiijiiiiihgfffffeeeedbbceghijjjheccebbggaabbdghgeeehhegghdacdhifhf
(PID.TID 0000.0001) //      9 efghigfiiiiijihhijjiijkkkkkjjiklkjjjkkkjihijjiihgfedefggfffedb-abdefgfggdcceabdebbceghgfffffgfgggdbddffddd
(PID.TID 0000.0001) //      8 ffgijhghiihhijhhijjiiijjjjkkkjjkjjiiiiiihghijihfedddefghhggffc--aabcedffeeedccefddefihedfffeefghgecdddca-c
(PID.TID 0000.0001) //      7 ..........................................................................................................
(PID.TID 0000.0001) //      6 ..........................................................................................................
(PID.TID 0000.0001) //      5 ..........................................................................................................
(PID.TID 0000.0001) //      4 ..........................................................................................................
(PID.TID 0000.0001) //      3 ..........................................................................................................
(PID.TID 0000.0001) //      2 ..........................................................................................................
(PID.TID 0000.0001) //      1 ..........................................................................................................
(PID.TID 0000.0001) //      0 ..........................................................................................................
(PID.TID 0000.0001) //     -1 ..........................................................................................................
(PID.TID 0000.0001) //     -2 ..........................................................................................................
(PID.TID 0000.0001) //     -3 ..........................................................................................................
(PID.TID 0000.0001) //     -4 ..........................................................................................................
(PID.TID 0000.0001) //     -5 ..........................................................................................................
(PID.TID 0000.0001) //     -6 ..........................................................................................................
(PID.TID 0000.0001) //     -7 ..........................................................................................................
(PID.TID 0000.0001) // =======================================================
(PID.TID 0000.0001) // END OF FIELD                                          =
(PID.TID 0000.0001) // =======================================================
(PID.TID 0000.0001) 
(PID.TID 0000.0001) // =======================================================
(PID.TID 0000.0001) // Field Model Ro_surf (ini_masks_etc)
(PID.TID 0000.0001) // CMIN =          1.000000000000000E+32
(PID.TID 0000.0001) // CMAX =         -1.000000000000000E+32
(PID.TID 0000.0001) // CINT =          0.000000000000000E+00
(PID.TID 0000.0001) // SYMBOLS (CMIN->CMAX): -abcdefghijklmnopqrstuvwxyz+
(PID.TID 0000.0001) //                  0.0: .
(PID.TID 0000.0001) // RANGE I (Lo:Hi:Step):(    -7:    98:     1)
(PID.TID 0000.0001) // RANGE J (Lo:Hi:Step):(    98:    -7:    -1)
(PID.TID 0000.0001) // RANGE K (Lo:Hi:Step):(   1:   1:   1)
(PID.TID 0000.0001) // =======================================================
(PID.TID 0000.0001) // =======================================================
(PID.TID 0000.0001) // END OF FIELD                                          =
(PID.TID 0000.0001) // =======================================================
(PID.TID 0000.0001) 
(PID.TID 0000.0001) // =======================================================
(PID.TID 0000.0001) // Field hFacC at iteration          0
(PID.TID 0000.0001) // CMIN =          1.000000000000000E+00
(PID.TID 0000.0001) // CMAX =          1.000000000000000E+00
(PID.TID 0000.0001) // CINT =          0.000000000000000E+00
(PID.TID 0000.0001) // SYMBOLS (CMIN->CMAX): -abcdefghijklmnopqrstuvwxyz+
(PID.TID 0000.0001) //                  0.0: .
(PID.TID 0000.0001) // RANGE I (Lo:Hi:Step):(    -7:    98:     1)
(PID.TID 0000.0001) // RANGE J (Lo:Hi:Step):(    98:    -7:    -1)
(PID.TID 0000.0001) // RANGE K (Lo:Hi:Step):(   1:   1:   1)
(PID.TID 0000.0001) // =======================================================
(PID.TID 0000.0001) // =======================================================
(PID.TID 0000.0001) // END OF FIELD                                          =
(PID.TID 0000.0001) // =======================================================
(PID.TID 0000.0001) 
(PID.TID 0000.0001) // =======================================================
(PID.TID 0000.0001) // Field hFacW at iteration          0
(PID.TID 0000.0001) // CMIN =          1.000000000000000E+00
(PID.TID 0000.0001) // CMAX =          1.000000000000000E+00
(PID.TID 0000.0001) // CINT =          0.000000000000000E+00
(PID.TID 0000.0001) // SYMBOLS (CMIN->CMAX): -abcdefghijklmnopqrstuvwxyz+
(PID.TID 0000.0001) //                  0.0: .
(PID.TID 0000.0001) // RANGE I (Lo:Hi:Step):(    -7:    98:     1)
(PID.TID 0000.0001) // RANGE J (Lo:Hi:Step):(    98:    -7:    -1)
(PID.TID 0000.0001) // RANGE K (Lo:Hi:Step):(   1:   1:   1)
(PID.TID 0000.0001) // =======================================================
(PID.TID 0000.0001) // =======================================================
(PID.TID 0000.0001) // END OF FIELD                                          =
(PID.TID 0000.0001) // =======================================================
(PID.TID 0000.0001) 
(PID.TID 0000.0001) // =======================================================
(PID.TID 0000.0001) // Field hFacS at iteration          0
(PID.TID 0000.0001) // CMIN =          1.000000000000000E+00
(PID.TID 0000.0001) // CMAX =          1.000000000000000E+00
(PID.TID 0000.0001) // CINT =          0.000000000000000E+00
(PID.TID 0000.0001) // SYMBOLS (CMIN->CMAX): -abcdefghijklmnopqrstuvwxyz+
(PID.TID 0000.0001) //                  0.0: .
(PID.TID 0000.0001) // RANGE I (Lo:Hi:Step):(    -7:    98:     1)
(PID.TID 0000.0001) // RANGE J (Lo:Hi:Step):(    98:    -7:    -1)
(PID.TID 0000.0001) // RANGE K (Lo:Hi:Step):(   1:   1:   1)
(PID.TID 0000.0001) // =======================================================
(PID.TID 0000.0001) // =======================================================
(PID.TID 0000.0001) // END OF FIELD                                          =
(PID.TID 0000.0001) // =======================================================
(PID.TID 0000.0001) 
(PID.TID 0000.0001) 
(PID.TID 0000.0001) // =======================================================
(PID.TID 0000.0001) // Calendar configuration >>> START <<<
(PID.TID 0000.0001) // =======================================================
(PID.TID 0000.0001) 
(PID.TID 0000.0001) modelstart = /* Start time of the model integration [s] */
(PID.TID 0000.0001)                 0.000000000000000E+00
(PID.TID 0000.0001)     ;
(PID.TID 0000.0001) modelend  = /* End time of the model integration [s] */
(PID.TID 0000.0001)                 3.600000000000000E+03
(PID.TID 0000.0001)     ;
(PID.TID 0000.0001) modelStep = /* Time interval for a model forward step [s] */
(PID.TID 0000.0001)                 2.400000000000000E+02
(PID.TID 0000.0001)     ;
(PID.TID 0000.0001) usingGregorianCalendar= /* Calendar Type: Gregorian Calendar */
(PID.TID 0000.0001)                   T
(PID.TID 0000.0001)     ;
(PID.TID 0000.0001) usingJulianCalendar = /* Calendar Type: Julian Calendar */
(PID.TID 0000.0001)                   F
(PID.TID 0000.0001)     ;
(PID.TID 0000.0001) usingNoLeapYearCal  = /* Calendar Type: without Leap Year */
(PID.TID 0000.0001)                   F
(PID.TID 0000.0001)     ;
(PID.TID 0000.0001) usingModelCalendar  = /* Calendar Type: Model Calendar */
(PID.TID 0000.0001)                   F
(PID.TID 0000.0001)     ;
[...]
(PID.TID 0000.0001) %MON forcing_qnet_max             =   1.0690555875847E+03
(PID.TID 0000.0001) %MON forcing_qnet_min             =  -1.8970702244147E+02
(PID.TID 0000.0001) %MON forcing_qnet_mean            =   3.2603364439079E+02
(PID.TID 0000.0001) %MON forcing_qnet_sd              =   2.1540745249867E+02
(PID.TID 0000.0001) %MON forcing_qnet_del2            =   1.1811108978261E-03
(PID.TID 0000.0001) %MON forcing_qsw_max              =   0.0000000000000E+00
(PID.TID 0000.0001) %MON forcing_qsw_min              =  -8.9640288763835E+00
(PID.TID 0000.0001) %MON forcing_qsw_mean             =  -2.9855377262821E-01
(PID.TID 0000.0001) %MON forcing_qsw_sd               =   9.4670363860455E-01
(PID.TID 0000.0001) %MON forcing_qsw_del2             =   3.0487658645497E-06
(PID.TID 0000.0001) %MON forcing_empmr_max            =   2.2388055937203E-04
(PID.TID 0000.0001) %MON forcing_empmr_min            =  -1.1435084314905E-03
(PID.TID 0000.0001) %MON forcing_empmr_mean           =   4.0913644947810E-05
(PID.TID 0000.0001) %MON forcing_empmr_sd             =   1.1218645860654E-04
(PID.TID 0000.0001) %MON forcing_empmr_del2           =   1.0025217760013E-09
(PID.TID 0000.0001) %MON forcing_fu_max               =   5.0105601395424E-01
(PID.TID 0000.0001) %MON forcing_fu_min               =  -3.3436571753252E-01
(PID.TID 0000.0001) %MON forcing_fu_mean              =   6.8540733271966E-02
(PID.TID 0000.0001) %MON forcing_fu_sd                =   1.3979099980088E-01
(PID.TID 0000.0001) %MON forcing_fu_del2              =   2.8876747829386E-07
(PID.TID 0000.0001) %MON forcing_fv_max               =   5.6349120258055E-01
(PID.TID 0000.0001) %MON forcing_fv_min               =  -1.7527754735469E-01
(PID.TID 0000.0001) %MON forcing_fv_mean              =   9.6208888877143E-02
(PID.TID 0000.0001) %MON forcing_fv_sd                =   1.3401652218553E-01
(PID.TID 0000.0001) %MON forcing_fv_del2              =   2.2872452722642E-07
(PID.TID 0000.0001) %MON trAdv_CFL_u_max              =   1.7235182929089E-01
(PID.TID 0000.0001) %MON trAdv_CFL_v_max              =   7.6672593904852E-02
(PID.TID 0000.0001) %MON trAdv_CFL_w_max              =   5.2243258705823E-01
(PID.TID 0000.0001) %MON advcfl_uvel_max              =   1.7240356204076E-01
(PID.TID 0000.0001) %MON advcfl_vvel_max              =   7.6672594507835E-02
(PID.TID 0000.0001) %MON advcfl_wvel_max              =   5.1372537727393E-01
(PID.TID 0000.0001) %MON advcfl_W_hf_max              =   5.2243258705823E-01
(PID.TID 0000.0001) %MON pe_b_mean                    =  -1.7158721955246E-03
(PID.TID 0000.0001) %MON ke_max                       =   3.3984096229712E+00
(PID.TID 0000.0001) %MON ke_mean                      =   2.6050027280611E-03
(PID.TID 0000.0001) %MON ke_vol                       =   4.5818637829946E+16
(PID.TID 0000.0001) %MON vort_r_min                   =  -5.1192592827774E-04
(PID.TID 0000.0001) %MON vort_r_max                   =   7.9269382436752E-04
(PID.TID 0000.0001) %MON vort_a_mean                  =   8.2147620151434E-05
(PID.TID 0000.0001) %MON vort_a_sd                    =   1.0161243415692E-05
(PID.TID 0000.0001) %MON vort_p_mean                  =   8.4848842369388E-05
(PID.TID 0000.0001) %MON vort_p_sd                    =   3.5006236800329E-05
(PID.TID 0000.0001) %MON surfExpan_theta_mean         =  -5.1646750771787E-04
(PID.TID 0000.0001) %MON surfExpan_salt_mean          =  -1.1939691147631E-03
(PID.TID 0000.0001) // =======================================================
(PID.TID 0000.0001) // End MONITOR dynamic field statistics
(PID.TID 0000.0001) // =======================================================
(PID.TID 0000.0001) // =======================================================
(PID.TID 0000.0001) // Begin OBCS MONITOR field statistics
(PID.TID 0000.0001) // =======================================================
(PID.TID 0000.0001) %MON obc_E_uVel_max               =   2.6404169471781E-01
(PID.TID 0000.0001) %MON obc_E_uVel_min               =  -2.7278025167691E+00
(PID.TID 0000.0001) %MON obc_E_uVel_mean              =   7.2567055999697E-03
(PID.TID 0000.0001) %MON obc_E_uVel_sd                =   4.5131166098935E-02
(PID.TID 0000.0001) %MON obc_E_uVel_Int               =   1.4015601170687E+08
(PID.TID 0000.0001) %MON obc_W_uVel_max               =   3.2552065211615E-01
(PID.TID 0000.0001) %MON obc_W_uVel_min               =  -6.9361238538007E-01
(PID.TID 0000.0001) %MON obc_W_uVel_mean              =  -3.7982834672129E-03
(PID.TID 0000.0001) %MON obc_W_uVel_sd                =   8.5899733159101E-02
(PID.TID 0000.0001) %MON obc_W_uVel_Int               =  -2.3130149858517E+07
(PID.TID 0000.0001) %MON obc_N_vVel_max               =   3.0362801572666E-01
(PID.TID 0000.0001) %MON obc_N_vVel_min               =  -9.9420894118766E-02
(PID.TID 0000.0001) %MON obc_N_vVel_mean              =   2.0173224744944E-02
(PID.TID 0000.0001) %MON obc_N_vVel_sd                =   4.0844322703573E-02
(PID.TID 0000.0001) %MON obc_N_vVel_Int               =   1.6593389101184E+08
(PID.TID 0000.0001) %MON obc_S_vVel_max               =   4.5288892656062E-02
(PID.TID 0000.0001) %MON obc_S_vVel_min               =  -9.3554147304536E-02
(PID.TID 0000.0001) %MON obc_S_vVel_mean              =  -4.5313521768453E-03
(PID.TID 0000.0001) %MON obc_S_vVel_sd                =   1.1174243664081E-02
(PID.TID 0000.0001) %MON obc_S_vVel_Int               =  -5.0428963564644E+07
(PID.TID 0000.0001) %MON obc_E_theta_max              =   2.5543400077115E+01
(PID.TID 0000.0001) %MON obc_E_theta_min              =   1.4633015851955E+00
(PID.TID 0000.0001) %MON obc_E_theta_mean             =   5.4563345982347E+00
(PID.TID 0000.0001) %MON obc_E_theta_sd               =   5.6195484728212E+00
(PID.TID 0000.0001) %MON obc_W_theta_max              =   1.5385151438155E+01
(PID.TID 0000.0001) %MON obc_W_theta_min              =   1.8895914629663E+00
(PID.TID 0000.0001) %MON obc_W_theta_mean             =   4.2050447212969E+00
(PID.TID 0000.0001) %MON obc_W_theta_sd               =   2.6436294328326E+00
(PID.TID 0000.0001) %MON obc_N_theta_max              =   1.6389539512358E+01
(PID.TID 0000.0001) %MON obc_N_theta_min              =   2.0877605393519E+00
(PID.TID 0000.0001) %MON obc_N_theta_mean             =   5.8650246976748E+00
(PID.TID 0000.0001) %MON obc_N_theta_sd               =   3.8420540742396E+00
(PID.TID 0000.0001) %MON obc_S_theta_max              =   2.3210099062962E+01
(PID.TID 0000.0001) %MON obc_S_theta_min              =   1.8976911896308E+00
(PID.TID 0000.0001) %MON obc_S_theta_mean             =   5.4651185211119E+00
(PID.TID 0000.0001) %MON obc_S_theta_sd               =   4.8644738336265E+00
(PID.TID 0000.0001) %MON obc_E_salt_max               =   3.7284640931659E+01
(PID.TID 0000.0001) %MON obc_E_salt_min               =   3.4844695097122E+01
(PID.TID 0000.0001) %MON obc_E_salt_mean              =   3.5160049185614E+01
(PID.TID 0000.0001) %MON obc_E_salt_sd                =   4.6599353163524E-01
(PID.TID 0000.0001) %MON obc_W_salt_max               =   3.5867264454533E+01
(PID.TID 0000.0001) %MON obc_W_salt_min               =   3.3295096609545E+01
(PID.TID 0000.0001) %MON obc_W_salt_mean              =   3.4957938633753E+01
(PID.TID 0000.0001) %MON obc_W_salt_sd                =   2.4691863212268E-01
(PID.TID 0000.0001) %MON obc_N_salt_max               =   3.5910861522510E+01
(PID.TID 0000.0001) %MON obc_N_salt_min               =   3.4917014819804E+01
(PID.TID 0000.0001) %MON obc_N_salt_mean              =   3.5230512871081E+01
(PID.TID 0000.0001) %MON obc_N_salt_sd                =   3.0056408045987E-01
(PID.TID 0000.0001) %MON obc_S_salt_max               =   3.7318243364860E+01
(PID.TID 0000.0001) %MON obc_S_salt_min               =   3.4884963728156E+01
(PID.TID 0000.0001) %MON obc_S_salt_mean              =   3.5182815708065E+01
(PID.TID 0000.0001) %MON obc_S_salt_sd                =   4.4105407774895E-01
(PID.TID 0000.0001) // =======================================================
(PID.TID 0000.0001) // End OBCS MONITOR field statistics
(PID.TID 0000.0001) // =======================================================
 Computing Diagnostic #     23  ETAN         Counter:      15   Parms: SM      M1      
 Computing Diagnostic #     80  oceTAUX      Counter:      15   Parms: UU      U1      
           Vector  Mate for  oceTAUX      Diagnostic #     81  oceTAUY  exists 
 Computing Diagnostic #     81  oceTAUY      Counter:      15   Parms: VV      U1      
           Vector  Mate for  oceTAUY      Diagnostic #     80  oceTAUX  exists 
 Computing Diagnostic #    185  EXFuwind     Counter:      15   Parms: UM      U1      
 Computing Diagnostic #    186  EXFvwind     Counter:      15   Parms: VM      U1      
 Computing Diagnostic #     26  THETA        Counter:      15   Parms: SMR     MR      
 Computing Diagnostic #     27  SALT         Counter:      15   Parms: SMR     MR      
 Computing Diagnostic #     30  UVEL         Counter:      15   Parms: UUR     MR      
           Vector  Mate for  UVEL         Diagnostic #     31  VVEL     exists 
 Computing Diagnostic #     31  VVEL         Counter:      15   Parms: VVR     MR      
           Vector  Mate for  VVEL         Diagnostic #     30  UVEL     exists 
 Computing Diagnostic #     32  WVEL         Counter:      15   Parms: WM      LR      
(PID.TID 0000.0001) %CHECKPOINT        15 ckptA
(PID.TID 0000.0001)   Seconds in section "ALL                    [THE_MODEL_MAIN]":
(PID.TID 0000.0001)           User time:   36.7296347618103
(PID.TID 0000.0001)         System time:  0.000000000000000E+000
(PID.TID 0000.0001)     Wall clock time:   53.0599429607391
(PID.TID 0000.0001)          No. starts:           1
(PID.TID 0000.0001)           No. stops:           1
(PID.TID 0000.0001)   Seconds in section "INITIALISE_FIXED       [THE_MODEL_MAIN]":
(PID.TID 0000.0001)           User time:   1.56159997731447
(PID.TID 0000.0001)         System time:  0.000000000000000E+000
(PID.TID 0000.0001)     Wall clock time:   5.61419105529785
(PID.TID 0000.0001)          No. starts:           1
(PID.TID 0000.0001)           No. stops:           1
(PID.TID 0000.0001)   Seconds in section "THE_MAIN_LOOP          [THE_MODEL_MAIN]":
(PID.TID 0000.0001)           User time:   35.1680219173431
(PID.TID 0000.0001)         System time:  0.000000000000000E+000
(PID.TID 0000.0001)     Wall clock time:   47.4457230567932
(PID.TID 0000.0001)          No. starts:           1
(PID.TID 0000.0001)           No. stops:           1
(PID.TID 0000.0001)   Seconds in section "INITIALISE_VARIA    [THE_MAIN_LOOP]":
(PID.TID 0000.0001)           User time:   1.10214889049530
(PID.TID 0000.0001)         System time:  0.000000000000000E+000
(PID.TID 0000.0001)     Wall clock time:   3.28912806510925
(PID.TID 0000.0001)          No. starts:           1
(PID.TID 0000.0001)           No. stops:           1
(PID.TID 0000.0001)   Seconds in section "MAIN LOOP           [THE_MAIN_LOOP]":
(PID.TID 0000.0001)           User time:   34.0658552646637
(PID.TID 0000.0001)         System time:  0.000000000000000E+000
(PID.TID 0000.0001)     Wall clock time:   44.1565771102905
(PID.TID 0000.0001)          No. starts:           1
(PID.TID 0000.0001)           No. stops:           1
(PID.TID 0000.0001)   Seconds in section "MAIN_DO_LOOP        [THE_MAIN_LOOP]":
(PID.TID 0000.0001)           User time:   34.0657703876495
(PID.TID 0000.0001)         System time:  0.000000000000000E+000
(PID.TID 0000.0001)     Wall clock time:   44.1564881801605
(PID.TID 0000.0001)          No. starts:          15
(PID.TID 0000.0001)           No. stops:          15
(PID.TID 0000.0001)   Seconds in section "FORWARD_STEP        [MAIN_DO_LOOP]":
(PID.TID 0000.0001)           User time:   34.0655727386475
(PID.TID 0000.0001)         System time:  0.000000000000000E+000
(PID.TID 0000.0001)     Wall clock time:   44.1562850475311
(PID.TID 0000.0001)          No. starts:          15
(PID.TID 0000.0001)           No. stops:          15
(PID.TID 0000.0001)   Seconds in section "DO_STATEVARS_DIAGS  [FORWARD_STEP]":
(PID.TID 0000.0001)           User time:  0.305114984512329
(PID.TID 0000.0001)         System time:  0.000000000000000E+000
(PID.TID 0000.0001)     Wall clock time:  0.309445619583130
(PID.TID 0000.0001)          No. starts:          45
(PID.TID 0000.0001)           No. stops:          45
(PID.TID 0000.0001)   Seconds in section "LOAD_FIELDS_DRIVER  [FORWARD_STEP]":
(PID.TID 0000.0001)           User time:  0.169044971466064
(PID.TID 0000.0001)         System time:  0.000000000000000E+000
(PID.TID 0000.0001)     Wall clock time:  0.214034795761108
(PID.TID 0000.0001)          No. starts:          15
(PID.TID 0000.0001)           No. stops:          15
(PID.TID 0000.0001)   Seconds in section "EXF_GETFORCING     [LOAD_FLDS_DRIVER]":
(PID.TID 0000.0001)           User time:  0.168694019317627
(PID.TID 0000.0001)         System time:  0.000000000000000E+000
(PID.TID 0000.0001)     Wall clock time:  0.213671207427979
(PID.TID 0000.0001)          No. starts:          15
(PID.TID 0000.0001)           No. stops:          15
(PID.TID 0000.0001)   Seconds in section "EXTERNAL_FLDS_LOAD [LOAD_FLDS_DRIVER]":
(PID.TID 0000.0001)           User time:  9.107589721679688E-005
(PID.TID 0000.0001)         System time:  0.000000000000000E+000
(PID.TID 0000.0001)     Wall clock time:  1.037120819091797E-004
(PID.TID 0000.0001)          No. starts:          15
(PID.TID 0000.0001)           No. stops:          15
(PID.TID 0000.0001)   Seconds in section "DO_ATMOSPHERIC_PHYS [FORWARD_STEP]":
(PID.TID 0000.0001)           User time:  7.987022399902344E-005
(PID.TID 0000.0001)         System time:  0.000000000000000E+000
(PID.TID 0000.0001)     Wall clock time:  7.963180541992188E-005
(PID.TID 0000.0001)          No. starts:          15
(PID.TID 0000.0001)           No. stops:          15
(PID.TID 0000.0001)   Seconds in section "DO_OCEANIC_PHYS     [FORWARD_STEP]":
(PID.TID 0000.0001)           User time:   4.62936210632324
(PID.TID 0000.0001)         System time:  0.000000000000000E+000
(PID.TID 0000.0001)     Wall clock time:   4.70804214477539
(PID.TID 0000.0001)          No. starts:          15
(PID.TID 0000.0001)           No. stops:          15
(PID.TID 0000.0001)   Seconds in section "KPP_CALC [DO_OCEANIC_PHYS]":
(PID.TID 0000.0001)           User time:   3.99391698837280
(PID.TID 0000.0001)         System time:  0.000000000000000E+000
(PID.TID 0000.0001)     Wall clock time:   4.06005668640137
(PID.TID 0000.0001)          No. starts:          15
(PID.TID 0000.0001)           No. stops:          15
(PID.TID 0000.0001)   Seconds in section "DYNAMICS            [FORWARD_STEP]":
(PID.TID 0000.0001)           User time:   11.2870843410492
(PID.TID 0000.0001)         System time:  0.000000000000000E+000
(PID.TID 0000.0001)     Wall clock time:   11.3460059165955
(PID.TID 0000.0001)          No. starts:          15
(PID.TID 0000.0001)           No. stops:          15
(PID.TID 0000.0001)   Seconds in section "UPDATE_SURF_DR      [FORWARD_STEP]":
(PID.TID 0000.0001)           User time:  0.121380567550659
(PID.TID 0000.0001)         System time:  0.000000000000000E+000
(PID.TID 0000.0001)     Wall clock time:  0.122554540634155
(PID.TID 0000.0001)          No. starts:          15
(PID.TID 0000.0001)           No. stops:          15
(PID.TID 0000.0001)   Seconds in section "SOLVE_FOR_PRESSURE  [FORWARD_STEP]":
(PID.TID 0000.0001)           User time:   1.11156511306763
(PID.TID 0000.0001)         System time:  0.000000000000000E+000
(PID.TID 0000.0001)     Wall clock time:   1.12029719352722
(PID.TID 0000.0001)          No. starts:          15
(PID.TID 0000.0001)           No. stops:          15
(PID.TID 0000.0001)   Seconds in section "MOM_CORRECTION_STEP [FORWARD_STEP]":
(PID.TID 0000.0001)           User time:  0.247005224227905
(PID.TID 0000.0001)         System time:  0.000000000000000E+000
(PID.TID 0000.0001)     Wall clock time:  0.247079849243164
(PID.TID 0000.0001)          No. starts:          15
(PID.TID 0000.0001)           No. stops:          15
(PID.TID 0000.0001)   Seconds in section "INTEGR_CONTINUITY   [FORWARD_STEP]":
(PID.TID 0000.0001)           User time:  0.320850849151611
(PID.TID 0000.0001)         System time:  0.000000000000000E+000
(PID.TID 0000.0001)     Wall clock time:  0.321745157241821
(PID.TID 0000.0001)          No. starts:          15
(PID.TID 0000.0001)           No. stops:          15
(PID.TID 0000.0001)   Seconds in section "BLOCKING_EXCHANGES  [FORWARD_STEP]":
(PID.TID 0000.0001)           User time:   1.34423732757568
(PID.TID 0000.0001)         System time:  0.000000000000000E+000
(PID.TID 0000.0001)     Wall clock time:   1.34542655944824
(PID.TID 0000.0001)          No. starts:          30
(PID.TID 0000.0001)           No. stops:          30
(PID.TID 0000.0001)   Seconds in section "THERMODYNAMICS      [FORWARD_STEP]":
(PID.TID 0000.0001)           User time:   7.56125140190125
(PID.TID 0000.0001)         System time:  0.000000000000000E+000
(PID.TID 0000.0001)     Wall clock time:   7.63074016571045
(PID.TID 0000.0001)          No. starts:          15
(PID.TID 0000.0001)           No. stops:          15
(PID.TID 0000.0001)   Seconds in section "TRC_CORRECTION_STEP [FORWARD_STEP]":
(PID.TID 0000.0001)           User time:  1.173019409179688E-004
(PID.TID 0000.0001)         System time:  0.000000000000000E+000
(PID.TID 0000.0001)     Wall clock time:  1.647472381591797E-004
(PID.TID 0000.0001)          No. starts:          15
(PID.TID 0000.0001)           No. stops:          15
(PID.TID 0000.0001)   Seconds in section "MONITOR             [FORWARD_STEP]":
(PID.TID 0000.0001)           User time:   1.13801193237305
(PID.TID 0000.0001)         System time:  0.000000000000000E+000
(PID.TID 0000.0001)     Wall clock time:   1.20445966720581
(PID.TID 0000.0001)          No. starts:          15
(PID.TID 0000.0001)           No. stops:          15
(PID.TID 0000.0001)   Seconds in section "DO_THE_MODEL_IO     [FORWARD_STEP]":
(PID.TID 0000.0001)           User time:   1.95710945129395
(PID.TID 0000.0001)         System time:  0.000000000000000E+000
(PID.TID 0000.0001)     Wall clock time:   5.53282713890076
(PID.TID 0000.0001)          No. starts:          15
(PID.TID 0000.0001)           No. stops:          15
(PID.TID 0000.0001)   Seconds in section "DO_WRITE_PICKUP     [FORWARD_STEP]":
(PID.TID 0000.0001)           User time:   3.87109088897705
(PID.TID 0000.0001)         System time:  0.000000000000000E+000
(PID.TID 0000.0001)     Wall clock time:   10.0515699386597
(PID.TID 0000.0001)          No. starts:          15
(PID.TID 0000.0001)           No. stops:          15
(PID.TID 0000.0001) // ======================================================
(PID.TID 0000.0001) // Tile <-> Tile communication statistics
(PID.TID 0000.0001) // ======================================================
(PID.TID 0000.0001) // o Tile number: 000001
(PID.TID 0000.0001) //         No. X exchanges =              0
(PID.TID 0000.0001) //            Max. X spins =              0
(PID.TID 0000.0001) //            Min. X spins =     1000000000
(PID.TID 0000.0001) //          Total. X spins =              0
(PID.TID 0000.0001) //            Avg. X spins =       0.00E+00
(PID.TID 0000.0001) //         No. Y exchanges =              0
(PID.TID 0000.0001) //            Max. Y spins =              0
(PID.TID 0000.0001) //            Min. Y spins =     1000000000
(PID.TID 0000.0001) //          Total. Y spins =              0
(PID.TID 0000.0001) //            Avg. Y spins =       0.00E+00
(PID.TID 0000.0001) // o Thread number: 000001
(PID.TID 0000.0001) //            No. barriers =          72752
(PID.TID 0000.0001) //      Max. barrier spins =              1
(PID.TID 0000.0001) //      Min. barrier spins =              1
(PID.TID 0000.0001) //     Total barrier spins =          72752
(PID.TID 0000.0001) //      Avg. barrier spins =       1.00E+00
PROGRAM MAIN: Execution ended Normally
